# generated using pymatgen
data_Li13Si3Br4
_symmetry_space_group_name_H-M   'P 1'
_cell_length_a   9.46879824
_cell_length_b   9.64797612
_cell_length_c   9.65274777
_cell_angle_alpha   90.89466256
_cell_angle_beta   88.87336177
_cell_angle_gamma   122.94507205
_symmetry_Int_Tables_number   1
_chemical_formula_structural   Li13Si3Br4
_chemical_formula_sum   'Li26 Si6 Br8'
_cell_volume   739.86434911
_cell_formula_units_Z   2
loop_
 _symmetry_equiv_pos_site_id
 _symmetry_equiv_pos_as_xyz
  1  'x, y, z'
loop_
 _atom_site_type_symbol
 _atom_site_label
 _atom_site_symmetry_multiplicity
 _atom_site_fract_x
 _atom_site_fract_y
 _atom_site_fract_z
 _atom_site_occupancy
  Li  Li0  1  0.72118949  0.33374652  0.44759927  1
  Li  Li1  1  0.48767086  0.07189836  0.06110319  1
  Li  Li2  1  0.13144678  0.43787150  0.65067473  1
  Li  Li3  1  0.49824252  0.81661717  0.86439225  1
  Li  Li4  1  0.24304952  0.85377517  0.78419398  1
  Li  Li5  1  0.35649460  0.06755225  0.58293620  1
  Li  Li6  1  0.57823649  0.39139424  0.71297738  1
  Li  Li7  1  0.05220899  0.49599242  0.92191767  1
  Li  Li8  1  0.67437875  0.82179587  0.45388208  1
  Li  Li9  1  0.60221394  0.57903781  0.01045535  1
  Li  Li10  1  -0.09921502  0.48034866  0.16316537  1
  Li  Li11  1  0.31591634  0.78521290  0.38599835  1
  Li  Li12  1  0.41692874  0.34020959  0.40252896  1
  Li  Li13  1  0.68036753  0.04148975  0.26415966  1
  Li  Li14  1  0.97912435  0.63815608  0.57804932  1
  Li  Li15  1  -0.02259785  -0.05654917  0.64473108  1
  Li  Li16  1  0.68066698  0.07364629  0.59914750  1
  Li  Li17  1  0.11555294  -0.05729402  0.37763244  1
  Li  Li18  1  0.77182104  0.65939631  0.27005880  1
  Li  Li19  1  0.01821503  0.17478589  0.38360005  1
  Li  Li20  1  0.34841145  0.21859352  0.92459367  1
  Li  Li21  1  0.90408316  0.65877487  0.86865516  1
  Li  Li22  1  0.80902755  0.14077120  0.88049516  1
  Li  Li23  1  0.17284217  -0.14990407  0.11296438  1
  Li  Li24  1  -0.02409888  0.97653095  0.09080777  1
  Li  Li25  1  0.26143054  0.42491539  0.16831937  1
  Si  Si26  1  0.83424983  0.36119413  0.72791363  1
  Si  Si27  1  0.44281102  0.08784922  0.32256248  1
  Si  Si28  1  0.53910057  0.11790546  0.80440991  1
  Si  Si29  1  0.58466781  0.34155888  0.18085006  1
  Si  Si30  1  0.68570486  0.36998822  0.94227839  1
  Si  Si31  1  0.27591742  0.16035868  0.18820844  1
  Br  Br32  1  0.41703851  0.73797749  0.60872502  1
  Br  Br33  1  0.53676301  0.72542312  0.21887496  1
  Br  Br34  1  0.22160771  0.24005071  0.60729658  1
  Br  Br35  1  0.68224805  0.58268827  0.51872697  1
  Br  Br36  1  0.06175306  0.48885870  0.38551020  1
  Br  Br37  1  0.31858053  0.48942971  -0.08826931  1
  Br  Br38  1  0.93004510  0.21512921  0.11250941  1
  Br  Br39  1  0.79590447  0.86282274  -0.13463587  1
