# generated using pymatgen
data_Li3BrCl4
_symmetry_space_group_name_H-M   'P 1'
_cell_length_a   7.49909603
_cell_length_b   7.14940726
_cell_length_c   9.13376115
_cell_angle_alpha   91.73731382
_cell_angle_beta   90.94900166
_cell_angle_gamma   122.20178806
_symmetry_Int_Tables_number   1
_chemical_formula_structural   Li3BrCl4
_chemical_formula_sum   'Li6 Br2 Cl8'
_cell_volume   413.87072331
_cell_formula_units_Z   2
loop_
 _symmetry_equiv_pos_site_id
 _symmetry_equiv_pos_as_xyz
  1  'x, y, z'
loop_
 _atom_site_type_symbol
 _atom_site_label
 _atom_site_symmetry_multiplicity
 _atom_site_fract_x
 _atom_site_fract_y
 _atom_site_fract_z
 _atom_site_occupancy
  Li  Li0  1  0.60484762  0.01081490  0.35609877  1
  Li  Li1  1  0.03837854  0.61209017  0.34630480  1
  Li  Li2  1  0.34078395  0.47359322  0.36547525  1
  Li  Li3  1  0.39517547  -0.01080138  0.64391424  1
  Li  Li4  1  0.96162920  0.38790896  0.65368775  1
  Li  Li5  1  0.65922724  0.52639791  0.63451342  1
  Br  Br6  1  -0.11251164  -0.21062837  0.02566656  1
  Br  Br7  1  0.11249241  0.21065463  0.97435343  1
  Cl  Cl8  1  0.33712111  0.72931566  0.21035001  1
  Cl  Cl9  1  0.66288143  0.27070061  -0.21036446  1
  Cl  Cl10  1  0.47532794  0.24499988  0.43132923  1
  Cl  Cl11  1  0.02941237  0.74357683  0.58873560  1
  Cl  Cl12  1  0.72222828  0.53993329  0.20052153  1
  Cl  Cl13  1  0.97058397  0.25641602  0.41124896  1
  Cl  Cl14  1  0.52466585  0.75496719  0.56865859  1
  Cl  Cl15  1  0.27775626  0.46006049  0.79950632  1
