# generated using pymatgen
data_K2IBr
_symmetry_space_group_name_H-M   'P 1'
_cell_length_a   4.73289357
_cell_length_b   4.73289341
_cell_length_c   13.48380293
_cell_angle_alpha   90.00000025
_cell_angle_beta   89.99999614
_cell_angle_gamma   90.00000023
_symmetry_Int_Tables_number   1
_chemical_formula_structural   K2IBr
_chemical_formula_sum   'K4 I2 Br2'
_cell_volume   302.04097228
_cell_formula_units_Z   2
loop_
 _symmetry_equiv_pos_site_id
 _symmetry_equiv_pos_as_xyz
  1  'x, y, z'
loop_
 _atom_site_type_symbol
 _atom_site_label
 _atom_site_symmetry_multiplicity
 _atom_site_fract_x
 _atom_site_fract_y
 _atom_site_fract_z
 _atom_site_occupancy
  K  K0  1  -0.00000004  0.00000002  0.34795228  1
  K  K1  1  0.49999999  0.00000020  0.08183927  1
  K  K2  1  0.00000004  -0.00000015  0.84795229  1
  K  K3  1  -0.00000001  0.49999993  0.58183918  1
  I  I4  1  -0.00000000  0.50000022  0.15364009  1
  I  I5  1  0.50000000  -0.00000009  0.65364010  1
  Br  Br6  1  0.49999998  0.49999995  0.40393998  1
  Br  Br7  1  0.50000004  0.49999992  0.90394000  1
