# generated using pymatgen
data_Na3IBr4
_symmetry_space_group_name_H-M   'P 1'
_cell_length_a   8.44943518
_cell_length_b   4.36930127
_cell_length_c   7.72609494
_cell_angle_alpha   89.99999917
_cell_angle_beta   89.99445717
_cell_angle_gamma   90.00000066
_symmetry_Int_Tables_number   1
_chemical_formula_structural   Na3IBr4
_chemical_formula_sum   'Na3 I1 Br4'
_cell_volume   285.23295963
_cell_formula_units_Z   1
loop_
 _symmetry_equiv_pos_site_id
 _symmetry_equiv_pos_as_xyz
  1  'x, y, z'
loop_
 _atom_site_type_symbol
 _atom_site_label
 _atom_site_symmetry_multiplicity
 _atom_site_fract_x
 _atom_site_fract_y
 _atom_site_fract_z
 _atom_site_occupancy
  Na  Na0  1  0.25136942  0.00000001  0.12429420  1
  Na  Na1  1  0.74863069  -0.00000001  0.12428022  1
  Na  Na2  1  0.50000996  0.50000000  0.57055871  1
  I  I3  1  -0.00000966  0.50000000  0.21084333  1
  Br  Br4  1  0.49999427  0.49999999  0.20260885  1
  Br  Br5  1  0.00000365  0.00000001  0.71249998  1
  Br  Br6  1  0.30400268  0.00000000  0.72755447  1
  Br  Br7  1  0.69599898  0.00000000  0.72753781  1
