# generated using pymatgen
data_LiICl2
_symmetry_space_group_name_H-M   'P 1'
_cell_length_a   4.03970666
_cell_length_b   4.03971995
_cell_length_c   7.68515780
_cell_angle_alpha   74.40589089
_cell_angle_beta   105.59419531
_cell_angle_gamma   113.60797339
_symmetry_Int_Tables_number   1
_chemical_formula_structural   LiICl2
_chemical_formula_sum   'Li1 I1 Cl2'
_cell_volume   108.82847449
_cell_formula_units_Z   1
loop_
 _symmetry_equiv_pos_site_id
 _symmetry_equiv_pos_as_xyz
  1  'x, y, z'
loop_
 _atom_site_type_symbol
 _atom_site_label
 _atom_site_symmetry_multiplicity
 _atom_site_fract_x
 _atom_site_fract_y
 _atom_site_fract_z
 _atom_site_occupancy
  Li  Li0  1  0.00026675  -0.00026702  0.49185669  1
  I  I1  1  0.01366019  0.98633993  0.00061595  1
  Cl  Cl2  1  0.27369209  0.72630805  0.33375572  1
  Cl  Cl3  1  0.75404763  0.24595236  0.67377165  1
