# generated using pymatgen
data_LiSiP2
_symmetry_space_group_name_H-M   'P 1'
_cell_length_a   6.99779858
_cell_length_b   6.38421290
_cell_length_c   5.99259264
_cell_angle_alpha   89.99998105
_cell_angle_beta   89.99998131
_cell_angle_gamma   89.99999970
_symmetry_Int_Tables_number   1
_chemical_formula_structural   LiSiP2
_chemical_formula_sum   'Li4 Si4 P8'
_cell_volume   267.72168896
_cell_formula_units_Z   4
loop_
 _symmetry_equiv_pos_site_id
 _symmetry_equiv_pos_as_xyz
  1  'x, y, z'
loop_
 _atom_site_type_symbol
 _atom_site_label
 _atom_site_symmetry_multiplicity
 _atom_site_fract_x
 _atom_site_fract_y
 _atom_site_fract_z
 _atom_site_occupancy
  Li  Li0  1  0.25000000  0.75000000  0.99838799  1
  Li  Li1  1  0.75000000  0.25000000  0.00161185  1
  Li  Li2  1  0.24999999  0.74999999  0.49838801  1
  Li  Li3  1  0.75000001  0.25000000  0.50161182  1
  Si  Si4  1  0.24999993  0.24999995  0.49944600  1
  Si  Si5  1  0.75000007  0.75000006  0.50055408  1
  Si  Si6  1  0.74999994  0.74999994  0.00055407  1
  Si  Si7  1  0.25000007  0.25000006  -0.00055401  1
  P  P8  1  0.56398044  0.57697262  0.25051875  1
  P  P9  1  0.43601955  0.42302737  0.74948130  1
  P  P10  1  0.93601956  0.92302738  0.25051851  1
  P  P11  1  0.06398045  0.07697263  0.74948154  1
  P  P12  1  0.06398043  0.42302738  0.24948134  1
  P  P13  1  0.93601956  0.57697263  0.75051871  1
  P  P14  1  0.56398044  0.92302737  0.75051854  1
  P  P15  1  0.43601956  0.07697263  0.24948151  1
