# generated using pymatgen
data_LiS2N
_symmetry_space_group_name_H-M   'P 1'
_cell_length_a   6.14481449
_cell_length_b   6.14503819
_cell_length_c   7.28529505
_cell_angle_alpha   84.93841792
_cell_angle_beta   84.93313093
_cell_angle_gamma   82.78726260
_symmetry_Int_Tables_number   1
_chemical_formula_structural   LiS2N
_chemical_formula_sum   'Li4 S8 N4'
_cell_volume   271.02080552
_cell_formula_units_Z   4
loop_
 _symmetry_equiv_pos_site_id
 _symmetry_equiv_pos_as_xyz
  1  'x, y, z'
loop_
 _atom_site_type_symbol
 _atom_site_label
 _atom_site_symmetry_multiplicity
 _atom_site_fract_x
 _atom_site_fract_y
 _atom_site_fract_z
 _atom_site_occupancy
  Li  Li0  1  0.51608939  0.16805626  -0.15848058  1
  Li  Li1  1  0.22594230  0.03689623  0.54882824  1
  Li  Li2  1  0.16851988  0.51600744  0.34106622  1
  Li  Li3  1  0.03684943  0.22601083  0.04866703  1
  S  S4  1  0.69387020  0.67645855  0.21911796  1
  S  S5  1  0.05218703  0.92063588  0.29874805  1
  S  S6  1  0.34922291  0.04850902  0.21133718  1
  S  S7  1  0.68112254  0.28957951  0.30838811  1
  S  S8  1  0.67617815  0.69360860  0.71929419  1
  S  S9  1  0.92043682  0.05174292  0.79867478  1
  S  S10  1  0.04785293  0.34900153  0.71135083  1
  S  S11  1  0.28921458  0.68087292  0.80835876  1
  N  N12  1  0.49975227  0.51453178  0.28502493  1
  N  N13  1  0.44981380  -0.12148893  0.74129250  1
  N  N14  1  0.51413321  0.49944980  0.78491614  1
  N  N15  1  -0.12118545  0.45012764  0.24102626  1
