# generated using pymatgen
data_LiICl2
_symmetry_space_group_name_H-M   'P 1'
_cell_length_a   4.43458139
_cell_length_b   8.14927196
_cell_length_c   13.27726124
_cell_angle_alpha   93.60168409
_cell_angle_beta   90.01659800
_cell_angle_gamma   89.94316058
_symmetry_Int_Tables_number   1
_chemical_formula_structural   LiICl2
_chemical_formula_sum   'Li4 I4 Cl8'
_cell_volume   478.87381051
_cell_formula_units_Z   4
loop_
 _symmetry_equiv_pos_site_id
 _symmetry_equiv_pos_as_xyz
  1  'x, y, z'
loop_
 _atom_site_type_symbol
 _atom_site_label
 _atom_site_symmetry_multiplicity
 _atom_site_fract_x
 _atom_site_fract_y
 _atom_site_fract_z
 _atom_site_occupancy
  Li  Li0  1  0.19234079  0.69825246  -0.00656728  1
  Li  Li1  1  0.69247198  -0.07349031  0.50600783  1
  Li  Li2  1  -0.16138863  0.42594248  0.50634453  1
  Li  Li3  1  0.33934547  0.19779061  -0.00624119  1
  I  I4  1  0.01455759  0.06226964  0.25011080  1
  I  I5  1  0.51691713  0.56241558  0.24985256  1
  I  I6  1  0.01527413  0.06285150  0.75018217  1
  I  I7  1  0.51589259  0.56278441  0.75003500  1
  Cl  Cl8  1  0.68757598  0.71809842  0.91512322  1
  Cl  Cl9  1  0.34351136  0.40789898  0.58495336  1
  Cl  Cl10  1  0.84389373  0.21749427  0.91553558  1
  Cl  Cl11  1  0.18735509  -0.09117776  0.58474516  1
  Cl  Cl12  1  0.25019578  0.45908090  0.08532978  1
  Cl  Cl13  1  0.74616345  0.16564369  0.41432899  1
  Cl  Cl14  1  0.28228535  0.95887144  0.08583378  1
  Cl  Cl15  1  0.78360821  0.66527370  0.41442570  1
