# generated using pymatgen
data_Li4Br5N12
_symmetry_space_group_name_H-M   'P 1'
_cell_length_a   10.01453050
_cell_length_b   10.01487751
_cell_length_c   8.53682917
_cell_angle_alpha   89.13190331
_cell_angle_beta   89.12498167
_cell_angle_gamma   88.36773115
_symmetry_Int_Tables_number   1
_chemical_formula_structural   Li4Br5N12
_chemical_formula_sum   'Li8 Br10 N24'
_cell_volume   855.65529561
_cell_formula_units_Z   2
loop_
 _symmetry_equiv_pos_site_id
 _symmetry_equiv_pos_as_xyz
  1  'x, y, z'
loop_
 _atom_site_type_symbol
 _atom_site_label
 _atom_site_symmetry_multiplicity
 _atom_site_fract_x
 _atom_site_fract_y
 _atom_site_fract_z
 _atom_site_occupancy
  Li  Li0  1  -0.01316467  0.20711377  0.23798395  1
  Li  Li1  1  0.80033345  0.07743458  0.91087900  1
  Li  Li2  1  0.21510972  0.98101953  0.77712944  1
  Li  Li3  1  0.07648266  0.75573777  0.04954455  1
  Li  Li4  1  0.70709749  0.48682733  0.73791429  1
  Li  Li5  1  0.57753115  0.30032923  0.41096169  1
  Li  Li6  1  0.48103628  0.71516426  0.27714851  1
  Li  Li7  1  0.25569264  0.57658134  0.54960791  1
  Br  Br8  1  0.02996504  0.01116037  0.02124009  1
  Br  Br9  1  0.32390550  0.20645706  0.68425820  1
  Br  Br10  1  0.69081467  0.84491995  0.84786965  1
  Br  Br11  1  0.22444329  0.65234020  0.26136826  1
  Br  Br12  1  0.76815201  0.32076793  0.22039638  1
  Br  Br13  1  0.51109028  0.53000420  0.52126764  1
  Br  Br14  1  0.70648939  0.82390264  0.18427490  1
  Br  Br15  1  0.34493883  0.19086934  0.34786226  1
  Br  Br16  1  0.15227569  0.72443482  0.76155400  1
  Br  Br17  1  0.82076486  0.26815533  0.72046923  1
  N  N18  1  0.50364096  0.57421538  0.06768751  1
  N  N19  1  0.46056590  0.43892095  0.03805191  1
  N  N20  1  0.55531223  0.50364827  0.93180290  1
  N  N21  1  0.41547375  0.55050279  0.93608918  1
  N  N22  1  0.92643479  0.60917892  -0.00146946  1
  N  N23  1  0.34681650  0.91786270  -0.02588965  1
  N  N24  1  0.60572391  0.13362163  -0.01356842  1
  N  N25  1  0.10358511  0.32379433  0.07073017  1
  N  N26  1  0.39092678  -0.12487911  0.08368899  1
  N  N27  1  0.49709775  0.15879163  0.00160338  1
  N  N28  1  -0.15047929  0.55784951  0.93061206  1
  N  N29  1  0.15024856  0.37772201  0.96976445  1
  N  N30  1  0.07412993  0.00365363  0.56787201  1
  N  N31  1  -0.06101703  -0.03972961  0.53781875  1
  N  N32  1  0.05082224  -0.08446592  0.43608580  1
  N  N33  1  0.00368325  0.05530453  0.43184647  1
  N  N34  1  0.10923285  0.42647519  0.49852365  1
  N  N35  1  0.41786070  0.84679823  0.47407893  1
  N  N36  1  0.63365757  0.10585483  0.48651087  1
  N  N37  1  0.82379710  0.60363266  0.57073384  1
  N  N38  1  0.37507886  0.89085384  0.58360576  1
  N  N39  1  0.65877591  -0.00275136  0.50167841  1
  N  N40  1  0.05787661  0.34958991  0.43057889  1
  N  N41  1  0.87779676  0.65033539  0.46983365  1
