# generated using pymatgen
data_NaIN4
_symmetry_space_group_name_H-M   'P 1'
_cell_length_a   6.47654187
_cell_length_b   6.52367224
_cell_length_c   7.14407206
_cell_angle_alpha   90.03728923
_cell_angle_beta   98.87388587
_cell_angle_gamma   90.02011635
_symmetry_Int_Tables_number   1
_chemical_formula_structural   NaIN4
_chemical_formula_sum   'Na2 I2 N8'
_cell_volume   298.22994857
_cell_formula_units_Z   2
loop_
 _symmetry_equiv_pos_site_id
 _symmetry_equiv_pos_as_xyz
  1  'x, y, z'
loop_
 _atom_site_type_symbol
 _atom_site_label
 _atom_site_symmetry_multiplicity
 _atom_site_fract_x
 _atom_site_fract_y
 _atom_site_fract_z
 _atom_site_occupancy
  Na  Na0  1  0.40448894  -0.17837303  -0.03786139  1
  Na  Na1  1  -0.08072961  0.31844297  0.04305994  1
  I  I2  1  -0.08569162  -0.18406887  0.00465045  1
  I  I3  1  0.40957051  0.31641205  -0.00907195  1
  N  N4  1  0.72533263  0.25874579  0.53158387  1
  N  N5  1  0.19978681  0.69741555  0.63081670  1
  N  N6  1  0.24670678  0.12883441  0.48746097  1
  N  N7  1  0.13429696  0.19375685  0.36846274  1
  N  N8  1  0.53985954  0.78250123  0.32099339  1
  N  N9  1  0.61927883  0.75255754  0.46810868  1
  N  N10  1  0.79358500  0.28437474  0.68270350  1
  N  N11  1  0.09351523  0.62940078  0.50909309  1
