# generated using pymatgen
data_K2BrN3
_symmetry_space_group_name_H-M   'P 1'
_cell_length_a   6.20785261
_cell_length_b   6.20779626
_cell_length_c   4.58494701
_cell_angle_alpha   89.99999468
_cell_angle_beta   89.99999834
_cell_angle_gamma   119.99884375
_symmetry_Int_Tables_number   1
_chemical_formula_structural   K2BrN3
_chemical_formula_sum   'K2 Br1 N3'
_cell_volume   153.02023483
_cell_formula_units_Z   1
loop_
 _symmetry_equiv_pos_site_id
 _symmetry_equiv_pos_as_xyz
  1  'x, y, z'
loop_
 _atom_site_type_symbol
 _atom_site_label
 _atom_site_symmetry_multiplicity
 _atom_site_fract_x
 _atom_site_fract_y
 _atom_site_fract_z
 _atom_site_occupancy
  K  K0  1  0.33333322  0.66666479  0.02071142  1
  K  K1  1  0.66666677  0.33333522  0.02071135  1
  Br  Br2  1  -0.00000001  -0.00000002  0.02041929  1
  N  N3  1  0.50000001  0.49999998  0.52104771  1
  N  N4  1  0.50000003  0.00000005  0.52105503  1
  N  N5  1  -0.00000001  0.49999999  0.52105519  1
