# generated using pymatgen
data_Na2ICl2
_symmetry_space_group_name_H-M   'P 1'
_cell_length_a   6.92129746
_cell_length_b   7.92035094
_cell_length_c   11.13235819
_cell_angle_alpha   89.99997662
_cell_angle_beta   89.99868403
_cell_angle_gamma   138.65635529
_symmetry_Int_Tables_number   1
_chemical_formula_structural   Na2ICl2
_chemical_formula_sum   'Na4 I2 Cl4'
_cell_volume   403.12563913
_cell_formula_units_Z   2
loop_
 _symmetry_equiv_pos_site_id
 _symmetry_equiv_pos_as_xyz
  1  'x, y, z'
loop_
 _atom_site_type_symbol
 _atom_site_label
 _atom_site_symmetry_multiplicity
 _atom_site_fract_x
 _atom_site_fract_y
 _atom_site_fract_z
 _atom_site_occupancy
  Na  Na0  1  0.00002253  0.00002965  0.55861276  1
  Na  Na1  1  -0.00001736  -0.00002327  0.04451996  1
  Na  Na2  1  0.41281733  0.64959407  0.75803718  1
  Na  Na3  1  0.58719685  0.35043882  0.75803644  1
  I  I4  1  0.26717761  0.52868558  0.06394798  1
  I  I5  1  0.73276111  0.47125795  0.06395071  1
  Cl  Cl6  1  0.50001580  0.00000534  0.62146094  1
  Cl  Cl7  1  -0.00000139  0.49999807  0.61979260  1
  Cl  Cl8  1  -0.00000105  -0.00001437  0.80839246  1
  Cl  Cl9  1  0.50002857  0.50002817  0.56288053  1
