# generated using pymatgen
data_Li3IO2
_symmetry_space_group_name_H-M   'P 1'
_cell_length_a   9.51632433
_cell_length_b   9.61421394
_cell_length_c   4.23968177
_cell_angle_alpha   90.00099127
_cell_angle_beta   89.99698218
_cell_angle_gamma   73.84312183
_symmetry_Int_Tables_number   1
_chemical_formula_structural   Li3IO2
_chemical_formula_sum   'Li12 I4 O8'
_cell_volume   372.57625818
_cell_formula_units_Z   4
loop_
 _symmetry_equiv_pos_site_id
 _symmetry_equiv_pos_as_xyz
  1  'x, y, z'
loop_
 _atom_site_type_symbol
 _atom_site_label
 _atom_site_symmetry_multiplicity
 _atom_site_fract_x
 _atom_site_fract_y
 _atom_site_fract_z
 _atom_site_occupancy
  Li  Li0  1  0.53648315  0.27900926  0.78522056  1
  Li  Li1  1  0.46374604  0.72035200  0.28301667  1
  Li  Li2  1  0.03664733  0.77933348  -0.21639799  1
  Li  Li3  1  0.96331180  0.22109781  0.28592296  1
  Li  Li4  1  0.43683720  -0.04180493  -0.18482178  1
  Li  Li5  1  0.56278571  0.04115794  0.31593285  1
  Li  Li6  1  0.24217457  0.31092454  0.82093716  1
  Li  Li7  1  0.75783326  0.68904888  0.31708620  1
  Li  Li8  1  0.25766888  0.18902639  0.32082577  1
  Li  Li9  1  0.74213167  -0.18892665  -0.18284218  1
  Li  Li10  1  0.06317471  0.54119330  0.31645153  1
  Li  Li11  1  -0.06283413  0.45961740  -0.18285209  1
  I  I12  1  0.31158984  0.56357690  -0.31496319  1
  I  I13  1  0.68871906  0.43628931  0.18426273  1
  I  I14  1  0.18862113  0.93605914  0.18581525  1
  I  I15  1  0.81106946  0.06409133  0.68545993  1
  O  O16  1  0.41179526  0.15248196  0.64658025  1
  O  O17  1  0.57935483  -0.17488341  0.49910589  1
  O  O18  1  0.42047725  0.17504992  0.00183194  1
  O  O19  1  0.58815170  -0.15296456  0.14369796  1
  O  O20  1  -0.07925821  0.67444451  -0.00148845  1
  O  O21  1  0.08805767  0.34706239  0.14643014  1
  O  O22  1  -0.08791024  0.65339641  0.64282867  1
  O  O23  1  0.07937205  0.32536668  0.50195924  1
