# generated using pymatgen
data_KP3I2
_symmetry_space_group_name_H-M   'P 1'
_cell_length_a   5.78923400
_cell_length_b   5.78923414
_cell_length_c   5.74628244
_cell_angle_alpha   90.00000153
_cell_angle_beta   90.00000037
_cell_angle_gamma   120.00000286
_symmetry_Int_Tables_number   1
_chemical_formula_structural   KP3I2
_chemical_formula_sum   'K1 P3 I2'
_cell_volume   166.78608210
_cell_formula_units_Z   1
loop_
 _symmetry_equiv_pos_site_id
 _symmetry_equiv_pos_as_xyz
  1  'x, y, z'
loop_
 _atom_site_type_symbol
 _atom_site_label
 _atom_site_symmetry_multiplicity
 _atom_site_fract_x
 _atom_site_fract_y
 _atom_site_fract_z
 _atom_site_occupancy
  K  K0  1  0.00000000  -0.00000000  -0.00000000  1
  P  P1  1  0.66666661  0.33333339  0.50000000  1
  P  P2  1  0.33333338  0.66666661  0.50000000  1
  P  P3  1  0.00000001  0.00000000  0.50000000  1
  I  I4  1  0.33333341  0.66666659  -0.00000000  1
  I  I5  1  0.66666659  0.33333341  0.00000000  1
