# generated using pymatgen
data_LiCS2
_symmetry_space_group_name_H-M   'P 1'
_cell_length_a   4.61437994
_cell_length_b   4.61437986
_cell_length_c   4.83915453
_cell_angle_alpha   90.00004287
_cell_angle_beta   90.00003918
_cell_angle_gamma   90.00000136
_symmetry_Int_Tables_number   1
_chemical_formula_structural   LiCS2
_chemical_formula_sum   'Li2 C2 S4'
_cell_volume   103.03770692
_cell_formula_units_Z   2
loop_
 _symmetry_equiv_pos_site_id
 _symmetry_equiv_pos_as_xyz
  1  'x, y, z'
loop_
 _atom_site_type_symbol
 _atom_site_label
 _atom_site_symmetry_multiplicity
 _atom_site_fract_x
 _atom_site_fract_y
 _atom_site_fract_z
 _atom_site_occupancy
  Li  Li0  1  0.50000000  0.50000000  0.00000001  1
  Li  Li1  1  0.50000000  0.50000000  0.50000000  1
  C  C2  1  -0.00000001  -0.00000002  -0.00000021  1
  C  C3  1  0.00000000  -0.00000009  0.49999994  1
  S  S4  1  0.50000034  0.00000007  0.25031966  1
  S  S5  1  0.00000006  0.50000039  0.25031953  1
  S  S6  1  -0.00000005  0.49999970  0.74968056  1
  S  S7  1  0.49999967  -0.00000006  0.74968050  1
