# generated using pymatgen
data_Li2S3N5
_symmetry_space_group_name_H-M   'P 1'
_cell_length_a   6.06629217
_cell_length_b   5.88122292
_cell_length_c   7.89920081
_cell_angle_alpha   96.46469941
_cell_angle_beta   87.78824009
_cell_angle_gamma   89.01790934
_symmetry_Int_Tables_number   1
_chemical_formula_structural   Li2S3N5
_chemical_formula_sum   'Li4 S6 N10'
_cell_volume   279.75537520
_cell_formula_units_Z   2
loop_
 _symmetry_equiv_pos_site_id
 _symmetry_equiv_pos_as_xyz
  1  'x, y, z'
loop_
 _atom_site_type_symbol
 _atom_site_label
 _atom_site_symmetry_multiplicity
 _atom_site_fract_x
 _atom_site_fract_y
 _atom_site_fract_z
 _atom_site_occupancy
  Li  Li0  1  -0.19628939  0.58123558  0.09671237  1
  Li  Li1  1  0.07926891  0.05373821  0.72035224  1
  Li  Li2  1  0.75320271  -0.17573733  0.42758276  1
  Li  Li3  1  0.43840420  0.56293174  -0.20038387  1
  S  S4  1  0.48052811  0.40838915  0.37971901  1
  S  S5  1  0.04758723  0.32482812  0.41276576  1
  S  S6  1  -0.04542541  0.50922467  0.73240970  1
  S  S7  1  -0.02180201  0.07316787  0.10743914  1
  S  S8  1  0.56258646  0.01891656  0.76350918  1
  S  S9  1  0.43720688  0.02683107  0.09420159  1
  N  N10  1  -0.06691977  0.54882072  0.52654421  1
  N  N11  1  0.15962457  0.38661062  0.77104378  1
  N  N12  1  0.76608498  0.61362310  0.83986553  1
  N  N13  1  0.55650498  0.59424021  0.28036959  1
  N  N14  1  -0.00267021  0.34089154  0.21639921  1
  N  N15  1  0.57518612  0.16597511  -0.04454401  1
  N  N16  1  0.91852635  -0.11752536  0.20673214  1
  N  N17  1  0.44002697  0.14577886  0.28120976  1
  N  N18  1  0.36114885  -0.11980248  0.73675280  1
  N  N19  1  0.75721948  0.05786205  0.65131912  1
