# generated using pymatgen
data_K2I7O
_symmetry_space_group_name_H-M   'P 1'
_cell_length_a   8.98610219
_cell_length_b   11.81744812
_cell_length_c   9.63021967
_cell_angle_alpha   80.92265096
_cell_angle_beta   89.58867431
_cell_angle_gamma   82.18907705
_symmetry_Int_Tables_number   1
_chemical_formula_structural   K2I7O
_chemical_formula_sum   'K4 I14 O2'
_cell_volume   1000.37663740
_cell_formula_units_Z   2
loop_
 _symmetry_equiv_pos_site_id
 _symmetry_equiv_pos_as_xyz
  1  'x, y, z'
loop_
 _atom_site_type_symbol
 _atom_site_label
 _atom_site_symmetry_multiplicity
 _atom_site_fract_x
 _atom_site_fract_y
 _atom_site_fract_z
 _atom_site_occupancy
  K  K0  1  0.27630036  -0.11273179  0.98674063  1
  K  K1  1  0.75758941  -0.00760006  0.95474763  1
  K  K2  1  0.89929183  0.79838421  0.44141410  1
  K  K3  1  0.12924353  0.15790524  0.45107593  1
  I  I4  1  0.01646117  0.01285588  0.19685649  1
  I  I5  1  0.01452696  -0.05709370  0.70301930  1
  I  I6  1  0.50712225  0.94366838  0.32308875  1
  I  I7  1  0.56047694  0.22530200  0.35085684  1
  I  I8  1  0.76786011  0.55594798  0.83222002  1
  I  I9  1  0.16797776  0.55485249  0.83062847  1
  I  I10  1  0.80526381  0.39784925  0.28146862  1
  I  I11  1  0.77258961  0.47958349  0.54854871  1
  I  I12  1  0.43441021  0.16534235  0.76768870  1
  I  I13  1  0.49436375  0.22754193  0.03927571  1
  I  I14  1  0.44617123  0.68415084  0.76184401  1
  I  I15  1  0.62575491  0.74856435  0.17813066  1
  I  I16  1  0.19907937  0.57527654  0.14820914  1
  I  I17  1  0.21898799  0.57522069  0.44192383  1
  O  O18  1  0.42444711  0.10449625  0.40826448  1
  O  O19  1  -0.01791832  0.47048368  -0.12356625  1
