# generated using pymatgen
data_Na5LiI4
_symmetry_space_group_name_H-M   'P 1'
_cell_length_a   9.90433999
_cell_length_b   9.90433948
_cell_length_c   8.00322009
_cell_angle_alpha   90.00007139
_cell_angle_beta   90.00000849
_cell_angle_gamma   89.99908526
_symmetry_Int_Tables_number   1
_chemical_formula_structural   Na5LiI4
_chemical_formula_sum   'Na10 Li2 I8'
_cell_volume   785.08344245
_cell_formula_units_Z   2
loop_
 _symmetry_equiv_pos_site_id
 _symmetry_equiv_pos_as_xyz
  1  'x, y, z'
loop_
 _atom_site_type_symbol
 _atom_site_label
 _atom_site_symmetry_multiplicity
 _atom_site_fract_x
 _atom_site_fract_y
 _atom_site_fract_z
 _atom_site_occupancy
  Na  Na0  1  0.73717518  0.23838197  0.24978744  1
  Na  Na1  1  0.26161705  0.76282221  0.74976937  1
  Na  Na2  1  0.26282730  0.76161489  0.24978045  1
  Na  Na3  1  0.73837857  0.23718176  0.74977782  1
  Na  Na4  1  0.76281985  0.73838179  0.74977365  1
  Na  Na5  1  0.23838567  0.26282440  0.24978417  1
  Na  Na6  1  0.23717970  0.26161950  0.74977366  1
  Na  Na7  1  0.50000020  0.49999995  -0.00016006  1
  Na  Na8  1  0.76161562  0.73717547  0.24978392  1
  Na  Na9  1  0.00000013  0.00000012  0.49986118  1
  Li  Li10  1  0.50000027  0.49999986  0.49921381  1
  Li  Li11  1  0.00000045  -0.00000036  -0.00169982  1
  I  I12  1  0.48613479  0.20740097  0.50054956  1
  I  I13  1  0.29260898  0.01386451  0.00058897  1
  I  I14  1  0.51386479  0.79259856  0.50054439  1
  I  I15  1  0.70739142  0.98613523  0.00059414  1
  I  I16  1  0.20740366  0.51386011  0.50054488  1
  I  I17  1  0.79259637  0.48614003  0.50054840  1
  I  I18  1  0.01385980  0.70739316  0.00059026  1
  I  I19  1  0.98614019  0.29260586  0.00059380  1
