# generated using pymatgen
data_LiS2I
_symmetry_space_group_name_H-M   'P 1'
_cell_length_a   6.06400141
_cell_length_b   6.06400154
_cell_length_c   5.31130614
_cell_angle_alpha   89.99581194
_cell_angle_beta   90.00369810
_cell_angle_gamma   89.99437149
_symmetry_Int_Tables_number   1
_chemical_formula_structural   LiS2I
_chemical_formula_sum   'Li2 S4 I2'
_cell_volume   195.30795264
_cell_formula_units_Z   2
loop_
 _symmetry_equiv_pos_site_id
 _symmetry_equiv_pos_as_xyz
  1  'x, y, z'
loop_
 _atom_site_type_symbol
 _atom_site_label
 _atom_site_symmetry_multiplicity
 _atom_site_fract_x
 _atom_site_fract_y
 _atom_site_fract_z
 _atom_site_occupancy
  Li  Li0  1  0.00000110  0.49999929  0.01483946  1
  Li  Li1  1  0.50000097  0.00000185  -0.01482263  1
  S  S2  1  0.61368524  0.11368436  0.49639204  1
  S  S3  1  0.88630133  0.61369857  0.50355783  1
  S  S4  1  0.11369665  0.38630324  0.50359498  1
  S  S5  1  0.38631385  0.88631298  0.49641008  1
  I  I6  1  0.00000083  0.00000045  0.00001408  1
  I  I7  1  0.50000003  0.49999928  0.00001416  1
