# generated using pymatgen
data_Li5I2Br
_symmetry_space_group_name_H-M   'P 1'
_cell_length_a   5.02366238
_cell_length_b   5.02366370
_cell_length_c   8.53164480
_cell_angle_alpha   89.99999967
_cell_angle_beta   89.99999989
_cell_angle_gamma   90.00000039
_symmetry_Int_Tables_number   1
_chemical_formula_structural   Li5I2Br
_chemical_formula_sum   'Li5 I2 Br1'
_cell_volume   215.31474399
_cell_formula_units_Z   1
loop_
 _symmetry_equiv_pos_site_id
 _symmetry_equiv_pos_as_xyz
  1  'x, y, z'
loop_
 _atom_site_type_symbol
 _atom_site_label
 _atom_site_symmetry_multiplicity
 _atom_site_fract_x
 _atom_site_fract_y
 _atom_site_fract_z
 _atom_site_occupancy
  Li  Li0  1  0.50000000  -0.00000000  0.80601702  1
  Li  Li1  1  -0.00000001  0.50000000  0.80601693  1
  Li  Li2  1  0.50000000  0.50000000  0.58077469  1
  Li  Li3  1  0.00000001  0.50000001  0.34543706  1
  Li  Li4  1  0.50000001  -0.00000001  0.34543715  1
  I  I5  1  0.49999999  0.50000000  0.93898074  1
  I  I6  1  0.00000001  -0.00000000  0.19642866  1
  Br  Br7  1  -0.00000001  0.00000000  0.70233996  1
