# generated using pymatgen
data_LiIN
_symmetry_space_group_name_H-M   'P 1'
_cell_length_a   5.92572604
_cell_length_b   5.00055098
_cell_length_c   3.94267081
_cell_angle_alpha   84.01012230
_cell_angle_beta   89.99924530
_cell_angle_gamma   89.99992417
_symmetry_Int_Tables_number   1
_chemical_formula_structural   LiIN
_chemical_formula_sum   'Li2 I2 N2'
_cell_volume   116.19096322
_cell_formula_units_Z   2
loop_
 _symmetry_equiv_pos_site_id
 _symmetry_equiv_pos_as_xyz
  1  'x, y, z'
loop_
 _atom_site_type_symbol
 _atom_site_label
 _atom_site_symmetry_multiplicity
 _atom_site_fract_x
 _atom_site_fract_y
 _atom_site_fract_z
 _atom_site_occupancy
  Li  Li0  1  -0.00000102  0.03969806  0.63456679  1
  Li  Li1  1  0.50000101  0.46072345  -0.13470774  1
  I  I2  1  0.50000242  -0.05397393  0.36958522  1
  I  I3  1  -0.00000244  0.55375734  0.13028632  1
  N  N4  1  -0.00000295  -0.05059610  0.14706847  1
  N  N5  1  0.50000299  0.55039118  0.35320094  1
