# generated using pymatgen
data_Li2BrO2
_symmetry_space_group_name_H-M   'P 1'
_cell_length_a   4.40333938
_cell_length_b   4.40299356
_cell_length_c   6.77986008
_cell_angle_alpha   89.99982573
_cell_angle_beta   90.00009669
_cell_angle_gamma   90.00003877
_symmetry_Int_Tables_number   1
_chemical_formula_structural   Li2BrO2
_chemical_formula_sum   'Li4 Br2 O4'
_cell_volume   131.44707918
_cell_formula_units_Z   2
loop_
 _symmetry_equiv_pos_site_id
 _symmetry_equiv_pos_as_xyz
  1  'x, y, z'
loop_
 _atom_site_type_symbol
 _atom_site_label
 _atom_site_symmetry_multiplicity
 _atom_site_fract_x
 _atom_site_fract_y
 _atom_site_fract_z
 _atom_site_occupancy
  Li  Li0  1  0.49999976  -0.00000014  0.21485791  1
  Li  Li1  1  0.00000007  0.50000035  0.21483637  1
  Li  Li2  1  0.50000023  0.00000014  0.78514209  1
  Li  Li3  1  -0.00000007  0.49999965  0.78516364  1
  Br  Br4  1  0.50000000  0.50000000  0.00000000  1
  Br  Br5  1  0.50000000  0.50000000  0.50000000  1
  O  O6  1  0.00000000  0.00000000  -0.00000000  1
  O  O7  1  0.50000000  -0.00000000  0.50000000  1
  O  O8  1  -0.00000000  0.50000000  0.50000000  1
  O  O9  1  -0.00000000  0.00000000  0.50000000  1
