# generated using pymatgen
data_KBrO2
_symmetry_space_group_name_H-M   'P 1'
_cell_length_a   6.62390154
_cell_length_b   6.29295443
_cell_length_c   7.71578470
_cell_angle_alpha   90.00011945
_cell_angle_beta   90.00003339
_cell_angle_gamma   89.90080444
_symmetry_Int_Tables_number   1
_chemical_formula_structural   KBrO2
_chemical_formula_sum   'K4 Br4 O8'
_cell_volume   321.62359730
_cell_formula_units_Z   4
loop_
 _symmetry_equiv_pos_site_id
 _symmetry_equiv_pos_as_xyz
  1  'x, y, z'
loop_
 _atom_site_type_symbol
 _atom_site_label
 _atom_site_symmetry_multiplicity
 _atom_site_fract_x
 _atom_site_fract_y
 _atom_site_fract_z
 _atom_site_occupancy
  K  K0  1  0.47540424  0.49977950  0.24999712  1
  K  K1  1  -0.02459416  -0.00025721  0.25002022  1
  K  K2  1  -0.02459384  -0.00025758  0.74997896  1
  K  K3  1  0.47540389  0.49977983  0.75000202  1
  Br  Br4  1  -0.05165784  0.50015830  -0.00000353  1
  Br  Br5  1  0.44826605  0.00018401  0.49999646  1
  Br  Br6  1  0.44836924  -0.00052735  -0.00000341  1
  Br  Br7  1  -0.05171258  0.49942104  0.49999660  1
  O  O8  1  0.28666212  0.22160993  0.00000064  1
  O  O9  1  0.78964210  0.27557391  0.50000346  1
  O  O10  1  0.78644166  0.27884027  0.00000196  1
  O  O11  1  0.28989895  0.22483980  0.50000156  1
  O  O12  1  0.78654375  0.72154395  0.50000072  1
  O  O13  1  0.78993363  0.72478576  0.00000170  1
  O  O14  1  0.28631531  0.77888755  0.50000201  1
  O  O15  1  0.28967748  0.77563829  0.00000352  1
