# generated using pymatgen
data_NaBrO2
_symmetry_space_group_name_H-M   'P 1'
_cell_length_a   4.17257617
_cell_length_b   4.17257672
_cell_length_c   5.92769138
_cell_angle_alpha   89.99998935
_cell_angle_beta   90.00001472
_cell_angle_gamma   90.00000444
_symmetry_Int_Tables_number   1
_chemical_formula_structural   NaBrO2
_chemical_formula_sum   'Na2 Br2 O4'
_cell_volume   103.20344353
_cell_formula_units_Z   2
loop_
 _symmetry_equiv_pos_site_id
 _symmetry_equiv_pos_as_xyz
  1  'x, y, z'
loop_
 _atom_site_type_symbol
 _atom_site_label
 _atom_site_symmetry_multiplicity
 _atom_site_fract_x
 _atom_site_fract_y
 _atom_site_fract_z
 _atom_site_occupancy
  Na  Na0  1  -0.00000001  -0.00000000  -0.00000863  1
  Na  Na1  1  0.50000000  0.49999998  0.50000863  1
  Br  Br2  1  0.49999997  0.49999997  0.00000255  1
  Br  Br3  1  -0.00000001  -0.00000002  0.49999745  1
  O  O4  1  0.50000000  0.00000004  0.25000154  1
  O  O5  1  0.00000003  0.50000007  0.74999854  1
  O  O6  1  -0.00000001  0.49999996  0.25000153  1
  O  O7  1  0.50000003  0.00000000  0.74999840  1
