# generated using pymatgen
data_Li3S5Cl8
_symmetry_space_group_name_H-M   'P 1'
_cell_length_a   9.56046095
_cell_length_b   9.48567465
_cell_length_c   10.23363153
_cell_angle_alpha   88.13207458
_cell_angle_beta   87.05111753
_cell_angle_gamma   96.59040475
_symmetry_Int_Tables_number   1
_chemical_formula_structural   Li3S5Cl8
_chemical_formula_sum   'Li6 S10 Cl16'
_cell_volume   920.01467340
_cell_formula_units_Z   2
loop_
 _symmetry_equiv_pos_site_id
 _symmetry_equiv_pos_as_xyz
  1  'x, y, z'
loop_
 _atom_site_type_symbol
 _atom_site_label
 _atom_site_symmetry_multiplicity
 _atom_site_fract_x
 _atom_site_fract_y
 _atom_site_fract_z
 _atom_site_occupancy
  Li  Li0  1  0.69789552  -0.08125790  0.09790353  1
  Li  Li1  1  -0.08907453  0.61813236  0.21262001  1
  Li  Li2  1  0.27332621  0.79058142  0.14825424  1
  Li  Li3  1  0.63683017  -0.19581449  0.43405957  1
  Li  Li4  1  -0.00255182  0.53168144  0.47273737  1
  Li  Li5  1  -0.21262606  0.24108986  0.35584267  1
  S  S6  1  0.58586230  0.52114078  0.12715774  1
  S  S7  1  0.53995463  0.51236876  0.73383396  1
  S  S8  1  0.42390133  0.40383019  0.19316640  1
  S  S9  1  0.63088422  0.35580988  0.80099994  1
  S  S10  1  0.48012394  0.46582748  0.52021076  1
  S  S11  1  0.00366127  -0.04719254  0.71929979  1
  S  S12  1  0.10189084  0.01844601  0.31203937  1
  S  S13  1  0.89001539  0.77613561  0.71121488  1
  S  S14  1  0.06480576  0.15907239  0.18595794  1
  S  S15  1  0.01945175  0.02878586  -0.05785475  1
  Cl  Cl16  1  0.47881406  0.20472730  0.88730214  1
  Cl  Cl17  1  0.79672159  0.39063597  0.15669644  1
  Cl  Cl18  1  0.49696111  0.75888890  0.05401520  1
  Cl  Cl19  1  0.13632415  0.62202786  0.28179700  1
  Cl  Cl20  1  0.78201509  0.62797276  0.42332048  1
  Cl  Cl21  1  0.55801413  0.26047595  0.51343335  1
  Cl  Cl22  1  0.27115607  0.38569989  0.53981077  1
  Cl  Cl23  1  0.42613228  0.70972884  0.54327709  1
  Cl  Cl24  1  0.68592105  0.00760997  0.31084451  1
  Cl  Cl25  1  -0.04169977  0.29038316  0.50636132  1
  Cl  Cl26  1  0.32156045  -0.00153430  0.30800038  1
  Cl  Cl27  1  0.01281693  0.60300824  0.71652585  1
  Cl  Cl28  1  0.11193938  0.22202632  -0.14401438  1
  Cl  Cl29  1  0.79549127  0.09724376  -0.06239543  1
  Cl  Cl30  1  0.88971254  0.78815778  0.04393582  1
  Cl  Cl31  1  0.23376876  0.93431047  -0.04635398  1
