# generated using pymatgen
data_Li3CI6
_symmetry_space_group_name_H-M   'P 1'
_cell_length_a   8.37891299
_cell_length_b   7.95145694
_cell_length_c   11.36516094
_cell_angle_alpha   89.99997232
_cell_angle_beta   89.99977797
_cell_angle_gamma   89.99245253
_symmetry_Int_Tables_number   1
_chemical_formula_structural   Li3CI6
_chemical_formula_sum   'Li6 C2 I12'
_cell_volume   757.19890681
_cell_formula_units_Z   2
loop_
 _symmetry_equiv_pos_site_id
 _symmetry_equiv_pos_as_xyz
  1  'x, y, z'
loop_
 _atom_site_type_symbol
 _atom_site_label
 _atom_site_symmetry_multiplicity
 _atom_site_fract_x
 _atom_site_fract_y
 _atom_site_fract_z
 _atom_site_occupancy
  Li  Li0  1  0.50000007  0.49999966  0.61813142  1
  Li  Li1  1  0.23552689  0.41450652  0.48008282  1
  Li  Li2  1  0.76447263  0.58549360  0.48008272  1
  Li  Li3  1  -0.00000008  -0.00000037  0.61812612  1
  Li  Li4  1  0.26447523  0.91450820  0.48008774  1
  Li  Li5  1  0.73552574  0.08549266  0.48008711  1
  C  C6  1  0.50000045  0.49999879  0.42317503  1
  C  C7  1  0.00000056  0.00000125  0.42321331  1
  I  I8  1  0.42072358  0.70222814  0.30715493  1
  I  I9  1  0.57927551  0.29777366  0.30715585  1
  I  I10  1  0.18940517  0.67257149  0.63592119  1
  I  I11  1  0.81059486  0.32742877  0.63592101  1
  I  I12  1  0.37775802  0.88993390  0.96829148  1
  I  I13  1  0.62224168  0.11006562  0.96829239  1
  I  I14  1  0.92071048  0.79775302  0.30714892  1
  I  I15  1  0.07928914  0.20224524  0.30714988  1
  I  I16  1  0.68939944  0.82743038  0.63591033  1
  I  I17  1  0.31060028  0.17257011  0.63591078  1
  I  I18  1  0.12186703  0.38949802  0.96824555  1
  I  I19  1  0.87813333  0.61050135  0.96824617  1
