# generated using pymatgen
data_Li6Br3N4
_symmetry_space_group_name_H-M   'P 1'
_cell_length_a   7.70198010
_cell_length_b   7.70193727
_cell_length_c   8.16436536
_cell_angle_alpha   90.00191374
_cell_angle_beta   89.98970174
_cell_angle_gamma   89.99311693
_symmetry_Int_Tables_number   1
_chemical_formula_structural   Li6Br3N4
_chemical_formula_sum   'Li12 Br6 N8'
_cell_volume   484.31150949
_cell_formula_units_Z   2
loop_
 _symmetry_equiv_pos_site_id
 _symmetry_equiv_pos_as_xyz
  1  'x, y, z'
loop_
 _atom_site_type_symbol
 _atom_site_label
 _atom_site_symmetry_multiplicity
 _atom_site_fract_x
 _atom_site_fract_y
 _atom_site_fract_z
 _atom_site_occupancy
  Li  Li0  1  -0.00106062  -0.00012013  0.95832899  1
  Li  Li1  1  0.49896343  0.50036315  0.45835529  1
  Li  Li2  1  0.84732745  0.65077071  0.16941174  1
  Li  Li3  1  0.15293565  0.34931734  0.16807317  1
  Li  Li4  1  0.00171053  0.00093499  0.37890009  1
  Li  Li5  1  0.34948502  0.84726418  0.16811350  1
  Li  Li6  1  0.65088145  0.15289504  0.16937657  1
  Li  Li7  1  0.15088380  0.34716289  0.66926663  1
  Li  Li8  1  0.84942382  0.65278303  0.66822417  1
  Li  Li9  1  0.50153369  0.49898408  0.87890822  1
  Li  Li10  1  0.34723815  0.84927904  0.66947528  1
  Li  Li11  1  0.65286982  0.15067947  0.66801967  1
  Br  Br12  1  0.49999838  0.00126611  -0.08101620  1
  Br  Br13  1  -0.00077687  -0.00191875  0.66856134  1
  Br  Br14  1  -0.00090697  0.49957259  -0.08101965  1
  Br  Br15  1  0.49897171  0.00033695  0.41897967  1
  Br  Br16  1  0.49948082  0.50151303  0.16857422  1
  Br  Br17  1  -0.00003056  0.49875860  0.41898298  1
  N  N18  1  0.11474406  0.93497642  0.16808609  1
  N  N19  1  0.88555105  0.06506113  0.16919546  1
  N  N20  1  0.06519087  0.11461086  0.16805815  1
  N  N21  1  0.93513477  0.88545422  0.16921885  1
  N  N22  1  0.43508494  0.61458653  0.66929453  1
  N  N23  1  0.56515925  0.38542445  0.66801362  1
  N  N24  1  0.61466500  0.56504238  0.66818820  1
  N  N25  1  0.38554135  0.43500168  0.66911859  1
