# generated using pymatgen
data_Li7I12Cl
_symmetry_space_group_name_H-M   'P 1'
_cell_length_a   9.15227514
_cell_length_b   9.15214502
_cell_length_c   9.15197163
_cell_angle_alpha   89.99952705
_cell_angle_beta   90.00136339
_cell_angle_gamma   89.99903002
_symmetry_Int_Tables_number   1
_chemical_formula_structural   Li7I12Cl
_chemical_formula_sum   'Li7 I12 Cl1'
_cell_volume   766.59613545
_cell_formula_units_Z   1
loop_
 _symmetry_equiv_pos_site_id
 _symmetry_equiv_pos_as_xyz
  1  'x, y, z'
loop_
 _atom_site_type_symbol
 _atom_site_label
 _atom_site_symmetry_multiplicity
 _atom_site_fract_x
 _atom_site_fract_y
 _atom_site_fract_z
 _atom_site_occupancy
  Li  Li0  1  0.00000080  -0.00000028  -0.00000021  1
  Li  Li1  1  0.49999854  0.50000062  -0.00000008  1
  Li  Li2  1  0.49999847  -0.00000003  0.50000035  1
  Li  Li3  1  -0.00000001  0.50000087  0.50000048  1
  Li  Li4  1  0.00000185  -0.00000066  0.50000029  1
  Li  Li5  1  0.00000183  0.50000067  -0.00000031  1
  Li  Li6  1  0.49999797  -0.00000063  -0.00000029  1
  I  I7  1  -0.00000084  0.28564467  0.28564476  1
  I  I8  1  0.28564611  -0.00000044  0.28564615  1
  I  I9  1  0.71435496  0.00000095  0.71435477  1
  I  I10  1  0.71435032  0.71435012  -0.00000152  1
  I  I11  1  0.28565069  0.28565063  0.00000168  1
  I  I12  1  -0.00000126  0.71435495  0.71435494  1
  I  I13  1  0.00000115  0.71435463  0.28564524  1
  I  I14  1  0.71435195  0.00000154  0.28564824  1
  I  I15  1  -0.00000338  0.28564511  0.71435473  1
  I  I16  1  0.71435246  0.28564762  -0.00000082  1
  I  I17  1  0.28564890  0.71435096  0.00000105  1
  I  I18  1  0.28564934  -0.00000116  0.71435056  1
  Cl  Cl19  1  0.50000013  0.49999986  0.49999999  1
