# generated using pymatgen
data_Na2SiI3
_symmetry_space_group_name_H-M   'P 1'
_cell_length_a   9.72159569
_cell_length_b   10.29449681
_cell_length_c   8.80968292
_cell_angle_alpha   71.52284097
_cell_angle_beta   109.22945714
_cell_angle_gamma   142.50873076
_symmetry_Int_Tables_number   1
_chemical_formula_structural   Na2SiI3
_chemical_formula_sum   'Na4 Si2 I6'
_cell_volume   504.29970392
_cell_formula_units_Z   2
loop_
 _symmetry_equiv_pos_site_id
 _symmetry_equiv_pos_as_xyz
  1  'x, y, z'
loop_
 _atom_site_type_symbol
 _atom_site_label
 _atom_site_symmetry_multiplicity
 _atom_site_fract_x
 _atom_site_fract_y
 _atom_site_fract_z
 _atom_site_occupancy
  Na  Na0  1  0.29000271  0.58264927  0.52797544  1
  Na  Na1  1  0.70999374  0.41734206  0.47202220  1
  Na  Na2  1  0.05118984  0.32109084  0.12005774  1
  Na  Na3  1  0.94880777  0.67891359  -0.12005426  1
  Si  Si4  1  0.08362628  0.14301229  0.56142904  1
  Si  Si5  1  -0.08361727  -0.14297736  0.43852893  1
  I  I6  1  0.06205494  0.51247431  0.76987095  1
  I  I7  1  -0.06206198  0.48752006  0.23013157  1
  I  I8  1  0.60860846  -0.18205551  0.24742890  1
  I  I9  1  0.39141722  0.18206549  0.75257991  1
  I  I10  1  0.77340532  0.86579585  0.76374384  1
  I  I11  1  0.22657296  0.13416910  0.23628574  1
