# generated using pymatgen
data_Li2BI
_symmetry_space_group_name_H-M   'P 1'
_cell_length_a   4.96228120
_cell_length_b   4.96228015
_cell_length_c   5.84458624
_cell_angle_alpha   90.00000019
_cell_angle_beta   90.00001252
_cell_angle_gamma   90.00000186
_symmetry_Int_Tables_number   1
_chemical_formula_structural   Li2BI
_chemical_formula_sum   'Li4 B2 I2'
_cell_volume   143.91843290
_cell_formula_units_Z   2
loop_
 _symmetry_equiv_pos_site_id
 _symmetry_equiv_pos_as_xyz
  1  'x, y, z'
loop_
 _atom_site_type_symbol
 _atom_site_label
 _atom_site_symmetry_multiplicity
 _atom_site_fract_x
 _atom_site_fract_y
 _atom_site_fract_z
 _atom_site_occupancy
  Li  Li0  1  -0.00000001  0.00000000  0.49989594  1
  Li  Li1  1  0.49999990  0.50000002  0.00010408  1
  Li  Li2  1  0.00000002  0.00000001  0.00010405  1
  Li  Li3  1  0.50000007  0.49999998  0.49989593  1
  B  B4  1  0.00000000  0.50000001  0.74999999  1
  B  B5  1  0.50000000  -0.00000001  0.25000001  1
  I  I6  1  0.00000000  0.50000000  0.25000001  1
  I  I7  1  0.50000001  -0.00000001  0.74999999  1
