# generated using pymatgen
data_KS27I
_symmetry_space_group_name_H-M   'P 1'
_cell_length_a   10.12532912
_cell_length_b   9.85531040
_cell_length_c   10.56805295
_cell_angle_alpha   88.79878815
_cell_angle_beta   89.86177024
_cell_angle_gamma   90.95391999
_symmetry_Int_Tables_number   1
_chemical_formula_structural   KS27I
_chemical_formula_sum   'K1 S27 I1'
_cell_volume   1054.18573319
_cell_formula_units_Z   1
loop_
 _symmetry_equiv_pos_site_id
 _symmetry_equiv_pos_as_xyz
  1  'x, y, z'
loop_
 _atom_site_type_symbol
 _atom_site_label
 _atom_site_symmetry_multiplicity
 _atom_site_fract_x
 _atom_site_fract_y
 _atom_site_fract_z
 _atom_site_occupancy
  K  K0  1  -0.17438840  -0.03996597  0.23318295  1
  S  S1  1  0.06311138  0.17382031  0.17237033  1
  S  S2  1  0.52159219  -0.01458695  0.15007115  1
  S  S3  1  -0.12123870  0.06250170  0.57583575  1
  S  S4  1  0.11219327  0.64236923  0.23255560  1
  S  S5  1  0.97273031  0.52651486  0.17188287  1
  S  S6  1  0.69564082  0.36487043  0.01516094  1
  S  S7  1  0.62954572  0.42134549  0.17675540  1
  S  S8  1  0.69990593  0.99492949  0.54738863  1
  S  S9  1  0.60840488  0.13546790  0.42065051  1
  S  S10  1  0.89470456  0.45988426  0.55265024  1
  S  S11  1  0.08633170  0.46998784  0.55676076  1
  S  S12  1  0.36195338  0.82647523  0.58912256  1
  S  S13  1  0.26527025  -0.00340286  0.59478478  1
  S  S14  1  0.40814064  0.57436181  0.85656972  1
  S  S15  1  0.42704345  0.70405253  -0.01090299  1
  S  S16  1  0.01526227  0.74426010  0.41231146  1
  S  S17  1  0.84522134  0.65244030  0.42727682  1
  S  S18  1  0.65965394  0.70318507  0.02359998  1
  S  S19  1  0.71892902  0.57425451  0.90176494  1
  S  S20  1  0.42095967  0.15329481  0.66778947  1
  S  S21  1  0.56053649  0.04260020  0.73349452  1
  S  S22  1  0.45263942  0.03117254  0.31826649  1
  S  S23  1  0.45199057  0.80055623  0.40287701  1
  S  S24  1  0.17171265  0.36942409  0.39022419  1
  S  S25  1  0.00282524  0.30736373  0.29321673  1
  S  S26  1  0.39901190  0.42184709  0.14295027  1
  S  S27  1  0.38516974  0.36504738  0.97044201  1
  I  I28  1  0.46514638  0.53592867  0.48094692  1
