# generated using pymatgen
data_LiP2Cl3
_symmetry_space_group_name_H-M   'P 1'
_cell_length_a   8.03788335
_cell_length_b   5.85827747
_cell_length_c   13.67117657
_cell_angle_alpha   89.99826082
_cell_angle_beta   90.00907269
_cell_angle_gamma   90.00381142
_symmetry_Int_Tables_number   1
_chemical_formula_structural   LiP2Cl3
_chemical_formula_sum   'Li4 P8 Cl12'
_cell_volume   643.75041633
_cell_formula_units_Z   4
loop_
 _symmetry_equiv_pos_site_id
 _symmetry_equiv_pos_as_xyz
  1  'x, y, z'
loop_
 _atom_site_type_symbol
 _atom_site_label
 _atom_site_symmetry_multiplicity
 _atom_site_fract_x
 _atom_site_fract_y
 _atom_site_fract_z
 _atom_site_occupancy
  Li  Li0  1  0.46704259  0.42497161  0.63090438  1
  Li  Li1  1  -0.03294321  0.07500883  0.63093487  1
  Li  Li2  1  0.53293800  0.57501226  0.13089998  1
  Li  Li3  1  0.03292849  0.92499755  0.13092627  1
  P  P4  1  0.87595616  -0.07816911  0.86718095  1
  P  P5  1  0.10138492  0.07386786  -0.10635879  1
  P  P6  1  0.37593756  0.57816532  0.86721903  1
  P  P7  1  0.60138287  0.42613158  -0.10635219  1
  P  P8  1  0.12401280  0.07824358  0.36715468  1
  P  P9  1  0.89863493  0.92609808  0.39365137  1
  P  P10  1  0.62403429  0.42175442  0.36719047  1
  P  P11  1  0.39863403  0.57389876  0.39367335  1
  Cl  Cl12  1  0.96193354  0.71496620  0.75378827  1
  Cl  Cl13  1  0.01622594  0.28104019  0.00727768  1
  Cl  Cl14  1  0.46192002  0.78509107  0.75380379  1
  Cl  Cl15  1  0.51623880  0.21893885  0.00726570  1
  Cl  Cl16  1  0.70412043  0.21509356  0.63184680  1
  Cl  Cl17  1  0.20406700  0.28497436  0.63183571  1
  Cl  Cl18  1  0.03806740  0.28517158  0.25376224  1
  Cl  Cl19  1  -0.01622207  0.71888854  0.50731869  1
  Cl  Cl20  1  0.53808988  0.21480491  0.25377598  1
  Cl  Cl21  1  0.48375740  0.78111762  0.50730775  1
  Cl  Cl22  1  0.29590520  0.78487215  0.13183814  1
  Cl  Cl23  1  0.79595304  0.71506022  0.13183664  1
