# generated using pymatgen
data_Li4Br3O2
_symmetry_space_group_name_H-M   'P 1'
_cell_length_a   9.71049980
_cell_length_b   4.63559435
_cell_length_c   6.82425052
_cell_angle_alpha   89.99923231
_cell_angle_beta   89.99718256
_cell_angle_gamma   90.00023965
_symmetry_Int_Tables_number   1
_chemical_formula_structural   Li4Br3O2
_chemical_formula_sum   'Li8 Br6 O4'
_cell_volume   307.18638931
_cell_formula_units_Z   2
loop_
 _symmetry_equiv_pos_site_id
 _symmetry_equiv_pos_as_xyz
  1  'x, y, z'
loop_
 _atom_site_type_symbol
 _atom_site_label
 _atom_site_symmetry_multiplicity
 _atom_site_fract_x
 _atom_site_fract_y
 _atom_site_fract_z
 _atom_site_occupancy
  Li  Li0  1  0.00002861  0.50003273  0.66780893  1
  Li  Li1  1  -0.00003206  0.00001151  0.50985777  1
  Li  Li2  1  0.66602957  0.10408775  0.41025858  1
  Li  Li3  1  0.33396455  -0.10414057  0.41027136  1
  Li  Li4  1  -0.00000059  -0.00002547  0.16778471  1
  Li  Li5  1  0.00000117  0.49999782  0.00985944  1
  Li  Li6  1  0.33396634  0.60412151  -0.08973197  1
  Li  Li7  1  0.66603940  0.39590470  -0.08973364  1
  Br  Br8  1  0.16900785  0.09357298  0.82584450  1
  Br  Br9  1  0.83099513  0.90645959  0.82581842  1
  Br  Br10  1  0.50000351  0.49999999  0.62184112  1
  Br  Br11  1  0.16900383  0.40641023  0.32585570  1
  Br  Br12  1  0.83099324  0.59355989  0.32583832  1
  Br  Br13  1  0.50000080  -0.00001347  0.12184373  1
  O  O14  1  0.14772566  0.60420056  0.84025479  1
  O  O15  1  0.85229204  0.39588139  0.84022115  1
  O  O16  1  0.14770638  0.89582453  0.34024464  1
  O  O17  1  0.85227458  0.10411434  0.34019883  1
