# generated using pymatgen
data_K2IO
_symmetry_space_group_name_H-M   'P 1'
_cell_length_a   10.90717498
_cell_length_b   8.71933586
_cell_length_c   11.92163847
_cell_angle_alpha   89.79582687
_cell_angle_beta   90.00024252
_cell_angle_gamma   90.00116505
_symmetry_Int_Tables_number   1
_chemical_formula_structural   K2IO
_chemical_formula_sum   'K16 I8 O8'
_cell_volume   1133.78022281
_cell_formula_units_Z   8
loop_
 _symmetry_equiv_pos_site_id
 _symmetry_equiv_pos_as_xyz
  1  'x, y, z'
loop_
 _atom_site_type_symbol
 _atom_site_label
 _atom_site_symmetry_multiplicity
 _atom_site_fract_x
 _atom_site_fract_y
 _atom_site_fract_z
 _atom_site_occupancy
  K  K0  1  -0.02494613  0.80569001  -0.00302232  1
  K  K1  1  0.02514093  0.69437137  0.50277403  1
  K  K2  1  0.74575595  0.79331227  0.75035162  1
  K  K3  1  0.25553456  0.70667981  0.74848029  1
  K  K4  1  0.47484323  0.69446229  0.00277316  1
  K  K5  1  0.52495586  0.80561230  0.49697154  1
  K  K6  1  0.75425588  0.79329496  0.25031719  1
  K  K7  1  0.24448932  0.70668051  0.24852601  1
  K  K8  1  0.52510250  0.19435589  0.49592341  1
  K  K9  1  0.47497691  0.30560408  0.00383196  1
  K  K10  1  0.74482668  0.20655272  0.74931458  1
  K  K11  1  0.25639943  0.29332605  0.74949002  1
  K  K12  1  -0.02512805  0.19446301  -0.00406854  1
  K  K13  1  0.02504510  0.30553096  0.50383859  1
  K  K14  1  0.75517380  0.20658458  0.24935030  1
  K  K15  1  0.24363240  0.29331220  0.24945358  1
  I  I16  1  0.68696749  0.00012454  0.00059988  1
  I  I17  1  0.31300551  0.50002579  0.49753365  1
  I  I18  1  0.18698184  0.50009790  -0.00248189  1
  I  I19  1  0.81301358  0.00004162  0.50062652  1
  I  I20  1  0.26339500  0.00006248  0.00064691  1
  I  I21  1  0.73661041  0.49999610  0.50566305  1
  I  I22  1  0.23660726  -0.00004923  0.50063890  1
  I  I23  1  0.76339120  0.50009922  0.00567797  1
  O  O24  1  0.60104979  -0.00026880  0.65397350  1
  O  O25  1  0.10925807  0.49963742  0.65647855  1
  O  O26  1  -0.10807930  0.00026053  0.84262964  1
  O  O27  1  0.40006501  0.50022140  0.84526447  1
  O  O28  1  0.39070301  0.49972487  0.15650402  1
  O  O29  1  0.60807439  0.00021078  0.34266750  1
  O  O30  1  -0.10107992  -0.00017442  0.15396423  1
  O  O31  1  0.09997831  0.50015680  0.34530772  1
