# generated using pymatgen
data_LiCBr2
_symmetry_space_group_name_H-M   'P 1'
_cell_length_a   7.26352085
_cell_length_b   6.51070007
_cell_length_c   3.59486722
_cell_angle_alpha   90.00000023
_cell_angle_beta   90.00000490
_cell_angle_gamma   90.00029501
_symmetry_Int_Tables_number   1
_chemical_formula_structural   LiCBr2
_chemical_formula_sum   'Li2 C2 Br4'
_cell_volume   170.00344819
_cell_formula_units_Z   2
loop_
 _symmetry_equiv_pos_site_id
 _symmetry_equiv_pos_as_xyz
  1  'x, y, z'
loop_
 _atom_site_type_symbol
 _atom_site_label
 _atom_site_symmetry_multiplicity
 _atom_site_fract_x
 _atom_site_fract_y
 _atom_site_fract_z
 _atom_site_occupancy
  Li  Li0  1  0.00000000  0.49999999  -0.00000001  1
  Li  Li1  1  0.50000000  0.00000000  0.50000004  1
  C  C2  1  0.00000000  0.00000000  0.50000053  1
  C  C3  1  0.50000000  0.50000000  -0.00000005  1
  Br  Br4  1  0.73166503  0.49999882  0.50000008  1
  Br  Br5  1  0.26833496  0.50000118  0.49999994  1
  Br  Br6  1  0.23166504  0.00000037  -0.00000019  1
  Br  Br7  1  0.76833496  -0.00000037  -0.00000034  1
