# generated using pymatgen
data_Na7N2O
_symmetry_space_group_name_H-M   'P 1'
_cell_length_a   5.81582676
_cell_length_b   9.41710615
_cell_length_c   5.75193541
_cell_angle_alpha   103.22362873
_cell_angle_beta   90.33745333
_cell_angle_gamma   89.67311052
_symmetry_Int_Tables_number   1
_chemical_formula_structural   Na7N2O
_chemical_formula_sum   'Na14 N4 O2'
_cell_volume   306.66213200
_cell_formula_units_Z   2
loop_
 _symmetry_equiv_pos_site_id
 _symmetry_equiv_pos_as_xyz
  1  'x, y, z'
loop_
 _atom_site_type_symbol
 _atom_site_label
 _atom_site_symmetry_multiplicity
 _atom_site_fract_x
 _atom_site_fract_y
 _atom_site_fract_z
 _atom_site_occupancy
  Na  Na0  1  0.10355177  0.48507187  0.04056098  1
  Na  Na1  1  0.56744350  0.77937677  0.24063745  1
  Na  Na2  1  0.62418093  0.47226681  0.12973534  1
  Na  Na3  1  0.69554139  0.07395063  0.29236366  1
  Na  Na4  1  0.22675307  0.05758195  0.44946562  1
  Na  Na5  1  0.14788905  0.81515673  0.75442198  1
  Na  Na6  1  0.57445150  0.12322507  0.86686860  1
  Na  Na7  1  0.09644191  0.11455473  0.95943525  1
  Na  Na8  1  -0.10369140  0.27065339  0.65371134  1
  Na  Na9  1  0.63939204  0.82012570  0.76847633  1
  Na  Na10  1  -0.03514172  0.54680206  0.54621284  1
  Na  Na11  1  0.49942034  0.52797602  0.71253809  1
  Na  Na12  1  0.29994926  0.33418474  0.35243227  1
  Na  Na13  1  0.06154261  0.78618021  0.23325067  1
  N  N14  1  0.32542087  0.62388606  0.40902217  1
  N  N15  1  0.87915908  0.30067186  0.24415584  1
  N  N16  1  0.87429759  0.97327183  0.58825700  1
  N  N17  1  0.32405113  0.29833156  0.75794111  1
  O  O18  1  -0.17733651  0.64009437  -0.07013132  1
  O  O19  1  0.37668360  -0.04336236  0.07064479  1
