# generated using pymatgen
data_KBe2Br5
_symmetry_space_group_name_H-M   'P 1'
_cell_length_a   7.02930533
_cell_length_b   7.03695499
_cell_length_c   7.90245830
_cell_angle_alpha   90.01001623
_cell_angle_beta   90.01068646
_cell_angle_gamma   90.00759014
_symmetry_Int_Tables_number   1
_chemical_formula_structural   KBe2Br5
_chemical_formula_sum   'K2 Be4 Br10'
_cell_volume   390.89433466
_cell_formula_units_Z   2
loop_
 _symmetry_equiv_pos_site_id
 _symmetry_equiv_pos_as_xyz
  1  'x, y, z'
loop_
 _atom_site_type_symbol
 _atom_site_label
 _atom_site_symmetry_multiplicity
 _atom_site_fract_x
 _atom_site_fract_y
 _atom_site_fract_z
 _atom_site_occupancy
  K  K0  1  0.50000003  0.50000001  0.50000002  1
  K  K1  1  -0.00000001  -0.00000004  0.50000001  1
  Be  Be2  1  0.00000020  0.49999956  0.49999896  1
  Be  Be3  1  0.50000009  -0.00000027  0.50000092  1
  Be  Be4  1  0.49999995  0.49999969  -0.00000001  1
  Be  Be5  1  0.00000013  -0.00000030  -0.00000013  1
  Br  Br6  1  0.24998755  0.24998738  0.28010636  1
  Br  Br7  1  0.75001203  0.75001309  0.71989377  1
  Br  Br8  1  0.25001649  0.75001667  0.28012609  1
  Br  Br9  1  0.74998339  0.24998322  0.71987396  1
  Br  Br10  1  0.00000000  0.50000023  -0.00000012  1
  Br  Br11  1  0.25001232  0.25001410  0.71989369  1
  Br  Br12  1  0.74998772  0.74998591  0.28010627  1
  Br  Br13  1  0.24998364  0.74998223  0.71987398  1
  Br  Br14  1  0.75001664  0.25001816  0.28012609  1
  Br  Br15  1  0.49999983  0.00000036  0.00000015  1
