# generated using pymatgen
data_Na2Br2O3
_symmetry_space_group_name_H-M   'P 1'
_cell_length_a   8.99041344
_cell_length_b   8.99023504
_cell_length_c   6.14081349
_cell_angle_alpha   90.00025288
_cell_angle_beta   89.99926606
_cell_angle_gamma   89.99999701
_symmetry_Int_Tables_number   1
_chemical_formula_structural   Na2Br2O3
_chemical_formula_sum   'Na8 Br8 O12'
_cell_volume   496.33696096
_cell_formula_units_Z   4
loop_
 _symmetry_equiv_pos_site_id
 _symmetry_equiv_pos_as_xyz
  1  'x, y, z'
loop_
 _atom_site_type_symbol
 _atom_site_label
 _atom_site_symmetry_multiplicity
 _atom_site_fract_x
 _atom_site_fract_y
 _atom_site_fract_z
 _atom_site_occupancy
  Na  Na0  1  0.25236687  0.50000312  0.00000305  1
  Na  Na1  1  0.50000552  0.74763118  -0.00000370  1
  Na  Na2  1  0.49999291  0.25236603  0.00000498  1
  Na  Na3  1  0.74762817  0.49999507  -0.00000038  1
  Na  Na4  1  0.00000217  0.75194080  0.50000151  1
  Na  Na5  1  0.24806237  0.00000154  0.49999675  1
  Na  Na6  1  0.75194384  0.00000089  0.49999840  1
  Na  Na7  1  0.00000080  0.24806106  0.49999677  1
  Br  Br8  1  0.50000213  0.75483847  0.49999750  1
  Br  Br9  1  0.75483375  0.50000415  0.50000221  1
  Br  Br10  1  0.24516965  0.49999922  0.50000176  1
  Br  Br11  1  0.50000203  0.24516408  0.50000173  1
  Br  Br12  1  0.00003322  0.25405406  0.00000450  1
  Br  Br13  1  0.25405177  -0.00003715  -0.00000871  1
  Br  Br14  1  -0.00003885  0.74594347  0.00000824  1
  Br  Br15  1  0.74594371  0.00003419  -0.00000833  1
  O  O16  1  0.22903550  0.22907822  0.04845870  1
  O  O17  1  0.22908089  0.77096029  0.95154007  1
  O  O18  1  0.77095924  0.77091964  0.04846089  1
  O  O19  1  0.77091745  0.22903873  0.95153744  1
  O  O20  1  0.49999712  0.49999870  0.00000237  1
  O  O21  1  0.50000123  0.50000046  0.50000086  1
  O  O22  1  0.72952433  0.72952250  0.54806704  1
  O  O23  1  0.27048011  0.72952310  0.45193249  1
  O  O24  1  0.27047815  0.27047963  0.54806432  1
  O  O25  1  0.72952332  0.27047760  0.45193770  1
  O  O26  1  0.00000315  0.00000094  0.49999870  1
  O  O27  1  -0.00000055  0.00000001  0.00000315  1
