# generated using pymatgen
data_Li3SN
_symmetry_space_group_name_H-M   'P 1'
_cell_length_a   4.76197411
_cell_length_b   4.05448866
_cell_length_c   5.82186505
_cell_angle_alpha   90.00090026
_cell_angle_beta   80.87511059
_cell_angle_gamma   90.00300984
_symmetry_Int_Tables_number   1
_chemical_formula_structural   Li3SN
_chemical_formula_sum   'Li6 S2 N2'
_cell_volume   110.98241947
_cell_formula_units_Z   2
loop_
 _symmetry_equiv_pos_site_id
 _symmetry_equiv_pos_as_xyz
  1  'x, y, z'
loop_
 _atom_site_type_symbol
 _atom_site_label
 _atom_site_symmetry_multiplicity
 _atom_site_fract_x
 _atom_site_fract_y
 _atom_site_fract_z
 _atom_site_occupancy
  Li  Li0  1  0.51170514  0.51905217  -0.04059698  1
  Li  Li1  1  0.29697022  0.04328964  0.62530029  1
  Li  Li2  1  0.78682256  0.86535269  0.61244987  1
  Li  Li3  1  -0.01168722  0.01904697  0.04060565  1
  Li  Li4  1  0.71317817  0.36535253  0.38762620  1
  Li  Li5  1  0.20302258  0.54330900  0.37462014  1
  S  S6  1  0.41692706  0.02889084  0.18609484  1
  S  S7  1  0.08307322  0.52892776  0.81391401  1
  N  N8  1  0.43260199  0.54340621  0.64576488  1
  N  N9  1  0.06738627  0.04337219  0.35422111  1
