# generated using pymatgen
data_LiP2I3
_symmetry_space_group_name_H-M   'P 1'
_cell_length_a   6.48607702
_cell_length_b   8.60494760
_cell_length_c   10.18159911
_cell_angle_alpha   94.76123261
_cell_angle_beta   101.70138468
_cell_angle_gamma   105.72768829
_symmetry_Int_Tables_number   1
_chemical_formula_structural   LiP2I3
_chemical_formula_sum   'Li2 P4 I6'
_cell_volume   529.84637670
_cell_formula_units_Z   2
loop_
 _symmetry_equiv_pos_site_id
 _symmetry_equiv_pos_as_xyz
  1  'x, y, z'
loop_
 _atom_site_type_symbol
 _atom_site_label
 _atom_site_symmetry_multiplicity
 _atom_site_fract_x
 _atom_site_fract_y
 _atom_site_fract_z
 _atom_site_occupancy
  Li  Li0  1  -0.01987163  -0.06519508  0.11631748  1
  Li  Li1  1  0.70309442  0.37420650  0.13988681  1
  P  P2  1  -0.12109256  0.61727252  0.51559484  1
  P  P3  1  0.78616963  0.38284906  0.41631980  1
  P  P4  1  0.96420646  0.08086661  0.54671509  1
  P  P5  1  0.76796615  0.22531647  0.57228284  1
  I  I6  1  -0.03087514  0.60667713  0.76108654  1
  I  I7  1  0.27825493  0.14174912  -0.01417768  1
  I  I8  1  0.11622886  0.65798031  0.15650978  1
  I  I9  1  0.61584668  0.67327954  0.15726797  1
  I  I10  1  0.77022261  0.13418512  -0.02893573  1
  I  I11  1  0.16984960  0.17081269  0.36967097  1
