# generated using pymatgen
data_Li2ICl2
_symmetry_space_group_name_H-M   'P 1'
_cell_length_a   7.57505705
_cell_length_b   9.76834657
_cell_length_c   8.16385398
_cell_angle_alpha   85.82351654
_cell_angle_beta   102.01651265
_cell_angle_gamma   99.25258851
_symmetry_Int_Tables_number   1
_chemical_formula_structural   Li2ICl2
_chemical_formula_sum   'Li8 I4 Cl8'
_cell_volume   582.68139755
_cell_formula_units_Z   4
loop_
 _symmetry_equiv_pos_site_id
 _symmetry_equiv_pos_as_xyz
  1  'x, y, z'
loop_
 _atom_site_type_symbol
 _atom_site_label
 _atom_site_symmetry_multiplicity
 _atom_site_fract_x
 _atom_site_fract_y
 _atom_site_fract_z
 _atom_site_occupancy
  Li  Li0  1  0.50213041  0.02810004  0.62144606  1
  Li  Li1  1  0.57253074  0.15568989  0.05579217  1
  Li  Li2  1  0.01732581  0.26355174  0.90847613  1
  Li  Li3  1  0.18330113  0.66541269  0.76428085  1
  Li  Li4  1  -0.23814865  0.36863979  0.48273240  1
  Li  Li5  1  -0.03655795  0.54191526  0.13340056  1
  Li  Li6  1  0.74882972  0.84161752  0.85974915  1
  Li  Li7  1  0.25662947  0.16318582  0.22488090  1
  I  I8  1  0.04605429  -0.10465658  0.28606465  1
  I  I9  1  0.57149803  0.46019774  -0.04742112  1
  I  I10  1  0.09509311  0.01444488  -0.40931081  1
  I  I11  1  0.44758178  0.39187721  0.61930061  1
  Cl  Cl12  1  0.73817416  0.08663519  0.86834645  1
  Cl  Cl13  1  0.46099106  0.78769138  0.69608172  1
  Cl  Cl14  1  0.56782352  0.14780456  0.35510074  1
  Cl  Cl15  1  0.25469080  0.11960260  -0.05411708  1
  Cl  Cl16  1  -0.00177916  0.44651674  0.70734600  1
  Cl  Cl17  1  0.72675123  0.54708589  0.27597893  1
  Cl  Cl18  1  0.01713410  0.74155518  0.96214239  1
  Cl  Cl19  1  0.06994641  0.33313247  0.18972931  1
