# generated using pymatgen
data_Na4N2O3
_symmetry_space_group_name_H-M   'P 1'
_cell_length_a   6.43257610
_cell_length_b   10.67645666
_cell_length_c   3.77118297
_cell_angle_alpha   90.10117805
_cell_angle_beta   91.62154027
_cell_angle_gamma   90.01923156
_symmetry_Int_Tables_number   1
_chemical_formula_structural   Na4N2O3
_chemical_formula_sum   'Na8 N4 O6'
_cell_volume   258.88984676
_cell_formula_units_Z   2
loop_
 _symmetry_equiv_pos_site_id
 _symmetry_equiv_pos_as_xyz
  1  'x, y, z'
loop_
 _atom_site_type_symbol
 _atom_site_label
 _atom_site_symmetry_multiplicity
 _atom_site_fract_x
 _atom_site_fract_y
 _atom_site_fract_z
 _atom_site_occupancy
  Na  Na0  1  0.77778040  0.04240557  0.65956524  1
  Na  Na1  1  0.20346887  -0.04226309  0.66707002  1
  Na  Na2  1  0.12465018  0.19105181  0.18420429  1
  Na  Na3  1  -0.17351224  0.82187180  0.17968522  1
  Na  Na4  1  0.25738034  0.46723705  -0.20252766  1
  Na  Na5  1  0.65802460  0.57421349  -0.19630501  1
  Na  Na6  1  0.35103562  0.72766391  0.19293248  1
  Na  Na7  1  0.62140920  0.34512371  0.30287123  1
  N  N8  1  0.42820611  0.15745437  -0.33840730  1
  N  N9  1  0.55873402  0.82142042  -0.30593939  1
  N  N10  1  0.04432923  0.62956710  0.59024074  1
  N  N11  1  0.89222704  0.35623584  0.83471341  1
  O  O12  1  0.90544971  0.25638264  0.64966373  1
  O  O13  1  0.08524832  0.74557804  0.66794575  1
  O  O14  1  -0.00726034  0.00185471  0.16031750  1
  O  O15  1  0.40980562  0.26272952  -0.17975028  1
  O  O16  1  0.91306178  0.61396223  0.33657494  1
  O  O17  1  0.44996151  0.52751087  0.29714509  1
