# generated using pymatgen
data_Na2IO2
_symmetry_space_group_name_H-M   'P 1'
_cell_length_a   5.63553368
_cell_length_b   5.63553341
_cell_length_c   6.12187280
_cell_angle_alpha   89.99992888
_cell_angle_beta   89.99996128
_cell_angle_gamma   89.98878676
_symmetry_Int_Tables_number   1
_chemical_formula_structural   Na2IO2
_chemical_formula_sum   'Na4 I2 O4'
_cell_volume   194.42601369
_cell_formula_units_Z   2
loop_
 _symmetry_equiv_pos_site_id
 _symmetry_equiv_pos_as_xyz
  1  'x, y, z'
loop_
 _atom_site_type_symbol
 _atom_site_label
 _atom_site_symmetry_multiplicity
 _atom_site_fract_x
 _atom_site_fract_y
 _atom_site_fract_z
 _atom_site_occupancy
  Na  Na0  1  -0.00004307  0.50009422  0.75000368  1
  Na  Na1  1  0.50007583  -0.00006847  0.24999628  1
  Na  Na2  1  0.50007638  -0.00006893  0.75000374  1
  Na  Na3  1  -0.00004299  0.50009352  0.24999626  1
  I  I4  1  0.49991971  0.49989747  0.50000071  1
  I  I5  1  0.00007139  0.00009350  -0.00000070  1
  O  O6  1  0.23796407  0.23794848  0.50000034  1
  O  O7  1  0.76188244  0.76186702  0.49999959  1
  O  O8  1  0.26200913  0.73811051  0.00000012  1
  O  O9  1  0.73808710  0.26203269  -0.00000002  1
