# generated using pymatgen
data_NaS2O
_symmetry_space_group_name_H-M   'P 1'
_cell_length_a   5.38060883
_cell_length_b   6.06766530
_cell_length_c   10.15060468
_cell_angle_alpha   89.77596112
_cell_angle_beta   111.57089517
_cell_angle_gamma   87.57314360
_symmetry_Int_Tables_number   1
_chemical_formula_structural   NaS2O
_chemical_formula_sum   'Na4 S8 O4'
_cell_volume   307.84041836
_cell_formula_units_Z   4
loop_
 _symmetry_equiv_pos_site_id
 _symmetry_equiv_pos_as_xyz
  1  'x, y, z'
loop_
 _atom_site_type_symbol
 _atom_site_label
 _atom_site_symmetry_multiplicity
 _atom_site_fract_x
 _atom_site_fract_y
 _atom_site_fract_z
 _atom_site_occupancy
  Na  Na0  1  -0.10966576  0.44507059  0.62682022  1
  Na  Na1  1  0.41087312  0.06246263  0.63972648  1
  Na  Na2  1  -0.10955125  -0.05450275  0.12688858  1
  Na  Na3  1  0.41054695  0.56302012  0.13958100  1
  S  S4  1  0.76677110  0.04047917  0.38710697  1
  S  S5  1  0.43345253  -0.09907492  0.37828693  1
  S  S6  1  0.90785928  0.62174038  0.37362592  1
  S  S7  1  0.22269037  0.43201157  0.37849236  1
  S  S8  1  0.43343612  0.40177212  0.87816967  1
  S  S9  1  0.76662386  0.54132533  0.88691368  1
  S  S10  1  0.22264358  -0.06734569  0.87855070  1
  S  S11  1  0.90794037  0.12268426  0.87370085  1
  O  O12  1  -0.05880221  0.09395713  0.53962965  1
  O  O13  1  0.42707030  0.40051047  0.53152876  1
  O  O14  1  -0.05884493  0.59474345  0.03942952  1
  O  O15  1  0.42695656  -0.09885386  0.03163908  1
