# generated using pymatgen
data_KSi2Cl7
_symmetry_space_group_name_H-M   'P 1'
_cell_length_a   8.48375097
_cell_length_b   8.48475904
_cell_length_c   6.01842270
_cell_angle_alpha   89.99792240
_cell_angle_beta   89.99808478
_cell_angle_gamma   119.99052574
_symmetry_Int_Tables_number   1
_chemical_formula_structural   KSi2Cl7
_chemical_formula_sum   'K1 Si2 Cl7'
_cell_volume   375.21673222
_cell_formula_units_Z   1
loop_
 _symmetry_equiv_pos_site_id
 _symmetry_equiv_pos_as_xyz
  1  'x, y, z'
loop_
 _atom_site_type_symbol
 _atom_site_label
 _atom_site_symmetry_multiplicity
 _atom_site_fract_x
 _atom_site_fract_y
 _atom_site_fract_z
 _atom_site_occupancy
  K  K0  1  -0.00006046  -0.00005649  0.49997830  1
  Si  Si1  1  0.66660914  0.33333908  0.37193038  1
  Si  Si2  1  0.33333249  0.66661800  0.62811160  1
  Cl  Cl3  1  0.00000972  0.00000684  -0.00000506  1
  Cl  Cl4  1  0.59503045  0.78462946  0.75359001  1
  Cl  Cl5  1  0.40506545  0.18941809  0.24627521  1
  Cl  Cl6  1  0.78432763  0.59500674  0.24645704  1
  Cl  Cl7  1  0.18969478  0.40503924  0.75368346  1
  Cl  Cl8  1  -0.18943949  0.21565309  0.24633989  1
  Cl  Cl9  1  0.21543029  -0.18965405  0.75363917  1
