# generated using pymatgen
data_K2CS5
_symmetry_space_group_name_H-M   'P 1'
_cell_length_a   6.39512564
_cell_length_b   6.39512555
_cell_length_c   9.46792836
_cell_angle_alpha   89.99999440
_cell_angle_beta   90.00000085
_cell_angle_gamma   89.99999389
_symmetry_Int_Tables_number   1
_chemical_formula_structural   K2CS5
_chemical_formula_sum   'K4 C2 S10'
_cell_volume   387.21584438
_cell_formula_units_Z   2
loop_
 _symmetry_equiv_pos_site_id
 _symmetry_equiv_pos_as_xyz
  1  'x, y, z'
loop_
 _atom_site_type_symbol
 _atom_site_label
 _atom_site_symmetry_multiplicity
 _atom_site_fract_x
 _atom_site_fract_y
 _atom_site_fract_z
 _atom_site_occupancy
  K  K0  1  -0.00000003  0.50000018  0.25030191  1
  K  K1  1  0.50000015  -0.00000024  0.74969809  1
  K  K2  1  -0.00000007  0.50000015  0.75030114  1
  K  K3  1  0.50000010  -0.00000017  0.24969887  1
  C  C4  1  0.00000048  0.00000116  0.50000000  1
  C  C5  1  0.49999985  0.50000224  0.00000000  1
  S  S6  1  0.20814655  0.79185310  0.50000000  1
  S  S7  1  0.79185358  0.20814608  0.50000000  1
  S  S8  1  0.20814571  0.20814553  0.50000011  1
  S  S9  1  0.79185293  0.79185275  0.49999989  1
  S  S10  1  0.50000056  0.50000110  0.49999999  1
  S  S11  1  0.29185329  0.70814614  0.00000000  1
  S  S12  1  0.70814739  0.29185204  -0.00000000  1
  S  S13  1  0.70814677  0.70814610  0.00000011  1
  S  S14  1  0.29185287  0.29185221  -0.00000011  1
  S  S15  1  -0.00000011  0.00000163  -0.00000000  1
