# generated using pymatgen
data_Li3BrO2
_symmetry_space_group_name_H-M   'P 1'
_cell_length_a   4.29610645
_cell_length_b   9.86163818
_cell_length_c   7.52779501
_cell_angle_alpha   90.00428321
_cell_angle_beta   89.99819042
_cell_angle_gamma   89.99999892
_symmetry_Int_Tables_number   1
_chemical_formula_structural   Li3BrO2
_chemical_formula_sum   'Li12 Br4 O8'
_cell_volume   318.92743578
_cell_formula_units_Z   4
loop_
 _symmetry_equiv_pos_site_id
 _symmetry_equiv_pos_as_xyz
  1  'x, y, z'
loop_
 _atom_site_type_symbol
 _atom_site_label
 _atom_site_symmetry_multiplicity
 _atom_site_fract_x
 _atom_site_fract_y
 _atom_site_fract_z
 _atom_site_occupancy
  Li  Li0  1  0.50001325  0.50004033  0.20237276  1
  Li  Li1  1  0.00000056  0.50004888  0.20237360  1
  Li  Li2  1  0.24995820  0.41366620  0.95437875  1
  Li  Li3  1  0.75000880  0.23658206  0.68994321  1
  Li  Li4  1  0.24993008  0.08625226  0.45438158  1
  Li  Li5  1  0.75000048  0.26342698  0.19003851  1
  Li  Li6  1  0.00001418  0.00000424  0.70239752  1
  Li  Li7  1  0.50000792  0.00002117  0.70239864  1
  Li  Li8  1  0.74992608  0.91362146  0.45442220  1
  Li  Li9  1  0.25000099  0.73660653  0.18993277  1
  Li  Li10  1  0.74996117  0.58629654  0.95435906  1
  Li  Li11  1  0.25000821  0.76339381  0.69008712  1
  Br  Br12  1  0.25000702  0.14029748  0.06597393  1
  Br  Br13  1  0.25001104  0.35956723  0.56599838  1
  Br  Br14  1  0.75001064  0.64023314  0.56594231  1
  Br  Br15  1  0.75000760  0.85963095  0.06601125  1
  O  O16  1  0.24999554  0.14164756  0.81885340  1
  O  O17  1  0.75002887  0.40409390  0.03197354  1
  O  O18  1  0.25000015  0.35854698  0.31893697  1
  O  O19  1  0.75004206  0.09587523  0.53190853  1
  O  O20  1  0.74999935  0.64168068  0.31882652  1
  O  O21  1  0.25004337  0.90405859  0.53201049  1
  O  O22  1  0.74999653  0.85849339  0.81891522  1
  O  O23  1  0.25002791  0.59591442  0.03187519  1
