# generated using pymatgen
data_Li10CBr4
_symmetry_space_group_name_H-M   'P 1'
_cell_length_a   7.19116609
_cell_length_b   8.69624300
_cell_length_c   8.77298773
_cell_angle_alpha   88.31803579
_cell_angle_beta   94.12953507
_cell_angle_gamma   92.66295668
_symmetry_Int_Tables_number   1
_chemical_formula_structural   Li10CBr4
_chemical_formula_sum   'Li20 C2 Br8'
_cell_volume   546.42717857
_cell_formula_units_Z   2
loop_
 _symmetry_equiv_pos_site_id
 _symmetry_equiv_pos_as_xyz
  1  'x, y, z'
loop_
 _atom_site_type_symbol
 _atom_site_label
 _atom_site_symmetry_multiplicity
 _atom_site_fract_x
 _atom_site_fract_y
 _atom_site_fract_z
 _atom_site_occupancy
  Li  Li0  1  0.13990582  -0.13754288  0.56920767  1
  Li  Li1  1  -0.14265736  0.13791632  0.42808245  1
  Li  Li2  1  -0.02590836  0.80979202  0.83901614  1
  Li  Li3  1  0.02432294  0.18958738  0.15986369  1
  Li  Li4  1  -0.14235891  0.80055176  0.09326822  1
  Li  Li5  1  0.14540838  0.19934274  0.90754599  1
  Li  Li6  1  0.27105417  -0.05788305  0.90972302  1
  Li  Li7  1  0.72804786  0.05623184  0.08613532  1
  Li  Li8  1  0.17021205  -0.07452919  0.18502588  1
  Li  Li9  1  0.83304013  0.07650255  0.81277407  1
  Li  Li10  1  0.35985825  0.63751387  0.93075859  1
  Li  Li11  1  0.64253356  0.36202310  0.07191541  1
  Li  Li12  1  0.52568249  0.69022538  0.66095338  1
  Li  Li13  1  0.47546172  0.31043114  0.34014443  1
  Li  Li14  1  0.64260138  0.69938847  0.40686250  1
  Li  Li15  1  0.35482170  0.30064816  0.59262797  1
  Li  Li16  1  0.22887819  0.55780860  0.59004099  1
  Li  Li17  1  0.77192630  0.44362940  0.41368232  1
  Li  Li18  1  0.33009498  0.57475113  0.31489663  1
  Li  Li19  1  0.66719262  0.42369299  0.68715426  1
  C  C20  1  0.00046012  -0.00015635  -0.00080698  1
  C  C21  1  0.49958089  0.50013990  0.50078543  1
  Br  Br22  1  0.76606080  -0.08980226  0.58747503  1
  Br  Br23  1  0.23212530  0.09073477  0.41114222  1
  Br  Br24  1  -0.00605242  0.32719871  0.65810742  1
  Br  Br25  1  0.00563998  0.67308112  0.34257254  1
  Br  Br26  1  0.73376663  0.58983580  -0.08741177  1
  Br  Br27  1  0.26771563  0.40927578  0.08894311  1
  Br  Br28  1  0.50611256  0.17275385  -0.15801543  1
  Br  Br29  1  0.49447259  0.82685696  0.15752953  1
