# generated using pymatgen
data_LiIO5
_symmetry_space_group_name_H-M   'P 1'
_cell_length_a   6.44680973
_cell_length_b   6.44675541
_cell_length_c   10.75253659
_cell_angle_alpha   90.00000006
_cell_angle_beta   90.00000149
_cell_angle_gamma   90.00073664
_symmetry_Int_Tables_number   1
_chemical_formula_structural   LiIO5
_chemical_formula_sum   'Li4 I4 O20'
_cell_volume   446.88623176
_cell_formula_units_Z   4
loop_
 _symmetry_equiv_pos_site_id
 _symmetry_equiv_pos_as_xyz
  1  'x, y, z'
loop_
 _atom_site_type_symbol
 _atom_site_label
 _atom_site_symmetry_multiplicity
 _atom_site_fract_x
 _atom_site_fract_y
 _atom_site_fract_z
 _atom_site_occupancy
  Li  Li0  1  0.24981927  0.25017819  0.25001187  1
  Li  Li1  1  0.75017974  0.74982271  0.25001179  1
  Li  Li2  1  0.74970603  0.24970521  0.74998450  1
  Li  Li3  1  0.25029661  0.75029737  0.74998419  1
  I  I4  1  0.50000010  0.00000004  0.03389134  1
  I  I5  1  0.00000008  0.50000010  0.46615754  1
  I  I6  1  -0.00000022  0.49999993  0.96611779  1
  I  I7  1  0.50000008  0.00000008  0.53383602  1
  O  O8  1  0.00000031  0.49999983  0.28745925  1
  O  O9  1  0.50000024  -0.00000048  0.21256890  1
  O  O10  1  0.57862007  0.44193528  0.62727012  1
  O  O11  1  0.42138014  0.55806476  0.62726977  1
  O  O12  1  0.55808590  0.57861607  0.37273155  1
  O  O13  1  0.44191453  0.42138347  0.37273153  1
  O  O14  1  0.05806211  0.92138353  0.62726889  1
  O  O15  1  -0.05806198  0.07861670  0.62726922  1
  O  O16  1  0.92138314  -0.05808597  0.37273074  1
  O  O17  1  0.07861665  0.05808622  0.37273076  1
  O  O18  1  0.55811067  0.42139972  0.87273366  1
  O  O19  1  0.44188844  0.57859980  0.87273399  1
  O  O20  1  0.42139539  0.44190470  0.12726653  1
  O  O21  1  0.57860478  0.55809485  0.12726654  1
  O  O22  1  0.92139951  0.05811395  0.87273482  1
  O  O23  1  0.07860026  -0.05811469  0.87273516  1
  O  O24  1  -0.05809243  0.92140099  0.12726591  1
  O  O25  1  0.05809225  0.07859933  0.12726592  1
  O  O26  1  0.49999913  -0.00000096  0.71253321  1
  O  O27  1  -0.00000080  0.49999925  0.78743848  1
