# generated using pymatgen
data_Li3BrO3
_symmetry_space_group_name_H-M   'P 1'
_cell_length_a   6.08118725
_cell_length_b   7.51332535
_cell_length_c   7.63861223
_cell_angle_alpha   90.01028345
_cell_angle_beta   89.97529693
_cell_angle_gamma   90.00064590
_symmetry_Int_Tables_number   1
_chemical_formula_structural   Li3BrO3
_chemical_formula_sum   'Li12 Br4 O12'
_cell_volume   349.00768373
_cell_formula_units_Z   4
loop_
 _symmetry_equiv_pos_site_id
 _symmetry_equiv_pos_as_xyz
  1  'x, y, z'
loop_
 _atom_site_type_symbol
 _atom_site_label
 _atom_site_symmetry_multiplicity
 _atom_site_fract_x
 _atom_site_fract_y
 _atom_site_fract_z
 _atom_site_occupancy
  Li  Li0  1  -0.00069088  0.00200497  0.49938750  1
  Li  Li1  1  0.49984348  0.50009949  0.50006639  1
  Li  Li2  1  0.00041797  0.50081118  0.00035808  1
  Li  Li3  1  0.50042518  0.00085781  -0.00023791  1
  Li  Li4  1  0.06240209  0.07304071  -0.15525723  1
  Li  Li5  1  -0.06181650  0.92702025  0.15459934  1
  Li  Li6  1  0.43763748  0.42772696  -0.15450942  1
  Li  Li7  1  0.56251285  0.57272757  0.15501189  1
  Li  Li8  1  0.43763135  0.07235075  0.34507103  1
  Li  Li9  1  0.56229568  0.92727946  0.65465885  1
  Li  Li10  1  0.06198719  0.42745447  0.34548476  1
  Li  Li11  1  -0.06247749  0.57341634  0.65527184  1
  Br  Br12  1  0.25000450  0.75003660  0.80795870  1
  Br  Br13  1  0.75049346  0.24935561  0.19223581  1
  Br  Br14  1  0.74992062  0.25027216  0.69215567  1
  Br  Br15  1  0.24958217  0.74943564  0.30787605  1
  O  O16  1  0.24089220  0.41597308  0.61170248  1
  O  O17  1  0.25889761  0.08384235  0.61155024  1
  O  O18  1  0.74955680  0.74892622  0.49478489  1
  O  O19  1  0.25003885  0.24996191  0.50518801  1
  O  O20  1  0.75863824  0.58344563  0.38753982  1
  O  O21  1  0.74079857  0.91548973  0.38904477  1
  O  O22  1  0.74106510  0.58406005  0.88876305  1
  O  O23  1  0.75894769  0.91614033  0.88791557  1
  O  O24  1  0.74994668  0.75038520  -0.00519244  1
  O  O25  1  0.25037444  0.24897289  0.00520794  1
  O  O26  1  0.25932602  0.41551987  0.11101740  1
  O  O27  1  0.24134867  0.08339277  0.11234693  1
