# generated using pymatgen
data_NaICl3
_symmetry_space_group_name_H-M   'P 1'
_cell_length_a   7.35007211
_cell_length_b   7.34729063
_cell_length_c   3.99454195
_cell_angle_alpha   90.02029748
_cell_angle_beta   89.99224304
_cell_angle_gamma   120.12054705
_symmetry_Int_Tables_number   1
_chemical_formula_structural   NaICl3
_chemical_formula_sum   'Na1 I1 Cl3'
_cell_volume   186.58966452
_cell_formula_units_Z   1
loop_
 _symmetry_equiv_pos_site_id
 _symmetry_equiv_pos_as_xyz
  1  'x, y, z'
loop_
 _atom_site_type_symbol
 _atom_site_label
 _atom_site_symmetry_multiplicity
 _atom_site_fract_x
 _atom_site_fract_y
 _atom_site_fract_z
 _atom_site_occupancy
  Na  Na0  1  0.00007331  0.00017900  0.80535630  1
  I  I1  1  0.66689776  0.33324795  0.66893028  1
  Cl  Cl2  1  -0.03487929  0.26739348  0.31935661  1
  Cl  Cl3  1  0.30188306  0.03495977  0.31928179  1
  Cl  Cl4  1  0.73269182  0.69755313  0.31937142  1
