# generated using pymatgen
data_KCI6
_symmetry_space_group_name_H-M   'P 1'
_cell_length_a   8.63683007
_cell_length_b   8.64233206
_cell_length_c   5.84230486
_cell_angle_alpha   90.03560425
_cell_angle_beta   90.00779280
_cell_angle_gamma   120.01317499
_symmetry_Int_Tables_number   1
_chemical_formula_structural   KCI6
_chemical_formula_sum   'K1 C1 I6'
_cell_volume   377.60901757
_cell_formula_units_Z   1
loop_
 _symmetry_equiv_pos_site_id
 _symmetry_equiv_pos_as_xyz
  1  'x, y, z'
loop_
 _atom_site_type_symbol
 _atom_site_label
 _atom_site_symmetry_multiplicity
 _atom_site_fract_x
 _atom_site_fract_y
 _atom_site_fract_z
 _atom_site_occupancy
  K  K0  1  -0.00000000  -0.00000000  0.49999971  1
  C  C1  1  0.00000001  -0.00000000  -0.00000029  1
  I  I2  1  0.53219404  0.53137098  0.25061044  1
  I  I3  1  0.46780665  0.46862976  0.74938976  1
  I  I4  1  0.53133898  -0.00089857  0.74942923  1
  I  I5  1  0.46866027  0.00089853  0.25057096  1
  I  I6  1  0.00084716  0.53216332  0.74944582  1
  I  I7  1  -0.00084711  0.46783598  0.25055438  1
