# generated using pymatgen
data_KBr3O4
_symmetry_space_group_name_H-M   'P 1'
_cell_length_a   6.91879728
_cell_length_b   7.22908615
_cell_length_c   4.38370740
_cell_angle_alpha   67.25276109
_cell_angle_beta   82.24574655
_cell_angle_gamma   101.54487791
_symmetry_Int_Tables_number   1
_chemical_formula_structural   KBr3O4
_chemical_formula_sum   'K1 Br3 O4'
_cell_volume   192.56647238
_cell_formula_units_Z   1
loop_
 _symmetry_equiv_pos_site_id
 _symmetry_equiv_pos_as_xyz
  1  'x, y, z'
loop_
 _atom_site_type_symbol
 _atom_site_label
 _atom_site_symmetry_multiplicity
 _atom_site_fract_x
 _atom_site_fract_y
 _atom_site_fract_z
 _atom_site_occupancy
  K  K0  1  0.40647855  0.42399894  0.72825570  1
  Br  Br1  1  0.10426127  0.11425314  0.49556137  1
  Br  Br2  1  -0.10192876  0.46302224  0.16345130  1
  Br  Br3  1  0.65179629  -0.07130527  0.84813818  1
  O  O4  1  -0.31663266  0.53705458  0.08454223  1
  O  O5  1  0.61071720  0.16176473  -0.36945332  1
  O  O6  1  0.03045096  0.49665542  -0.21575995  1
  O  O7  1  0.61485715  -0.12544379  0.26526448  1
