# generated using pymatgen
data_Na2Be3Br5
_symmetry_space_group_name_H-M   'P 1'
_cell_length_a   7.12036492
_cell_length_b   15.94675794
_cell_length_c   4.13654043
_cell_angle_alpha   89.98128796
_cell_angle_beta   90.01442828
_cell_angle_gamma   90.25592573
_symmetry_Int_Tables_number   1
_chemical_formula_structural   Na2Be3Br5
_chemical_formula_sum   'Na4 Be6 Br10'
_cell_volume   469.68593779
_cell_formula_units_Z   2
loop_
 _symmetry_equiv_pos_site_id
 _symmetry_equiv_pos_as_xyz
  1  'x, y, z'
loop_
 _atom_site_type_symbol
 _atom_site_label
 _atom_site_symmetry_multiplicity
 _atom_site_fract_x
 _atom_site_fract_y
 _atom_site_fract_z
 _atom_site_occupancy
  Na  Na0  1  0.66828114  0.10801417  -0.04669163  1
  Na  Na1  1  0.33399416  0.88685668  -0.04599504  1
  Na  Na2  1  0.16846918  0.10798703  0.45307390  1
  Na  Na3  1  -0.16589511  0.88687085  0.45390934  1
  Be  Be4  1  -0.00078121  0.50225009  0.60161119  1
  Be  Be5  1  0.67148236  0.50239923  0.62006561  1
  Be  Be6  1  0.17166190  0.50218695  0.11989251  1
  Be  Be7  1  0.49931891  0.50225880  0.10114264  1
  Be  Be8  1  0.32607378  0.50216372  0.61964656  1
  Be  Be9  1  0.82592020  0.50236277  0.11954380  1
  Br  Br10  1  0.00019508  0.61455959  -0.05358582  1
  Br  Br11  1  -0.00262252  0.38917261  0.94681184  1
  Br  Br12  1  0.49771968  0.38918151  0.44605205  1
  Br  Br13  1  0.49985418  0.61456327  0.44578960  1
  Br  Br14  1  0.50131827  -0.00243848  0.45371780  1
  Br  Br15  1  0.16689023  0.78199580  0.45327781  1
  Br  Br16  1  0.66694122  0.78205389  -0.04691266  1
  Br  Br17  1  0.00125324  -0.00237696  -0.04618690  1
  Br  Br18  1  0.83504585  0.21495269  0.45261096  1
  Br  Br19  1  0.33487945  0.21498579  -0.04777356  1
