# generated using pymatgen
data_NaSO2
_symmetry_space_group_name_H-M   'P 1'
_cell_length_a   9.37493824
_cell_length_b   8.61271754
_cell_length_c   6.19739039
_cell_angle_alpha   84.67265704
_cell_angle_beta   90.01628958
_cell_angle_gamma   90.00654443
_symmetry_Int_Tables_number   1
_chemical_formula_structural   NaSO2
_chemical_formula_sum   'Na8 S8 O16'
_cell_volume   498.23870014
_cell_formula_units_Z   8
loop_
 _symmetry_equiv_pos_site_id
 _symmetry_equiv_pos_as_xyz
  1  'x, y, z'
loop_
 _atom_site_type_symbol
 _atom_site_label
 _atom_site_symmetry_multiplicity
 _atom_site_fract_x
 _atom_site_fract_y
 _atom_site_fract_z
 _atom_site_occupancy
  Na  Na0  1  0.48956877  0.43582239  0.75390622  1
  Na  Na1  1  0.51062606  0.56414616  0.24610006  1
  Na  Na2  1  0.97256608  0.57278583  0.24375119  1
  Na  Na3  1  0.02729817  0.42717980  0.75629959  1
  Na  Na4  1  0.01073856  0.93615720  0.75413859  1
  Na  Na5  1  -0.01072340  0.06414781  0.24618322  1
  Na  Na6  1  0.47266632  0.92717290  0.75623903  1
  Na  Na7  1  0.52724986  0.07282773  0.24364167  1
  S  S8  1  0.25095929  0.71555897  0.52026660  1
  S  S9  1  0.74901313  0.28421596  0.47959196  1
  S  S10  1  0.25051774  0.29186094  0.12917521  1
  S  S11  1  0.74943375  0.70820024  0.87085071  1
  S  S12  1  0.24911359  0.21568488  0.52026635  1
  S  S13  1  0.75098483  0.78441716  0.47998135  1
  S  S14  1  0.75045792  0.20817914  0.87054201  1
  S  S15  1  0.24940492  0.79181427  0.12928752  1
  O  O16  1  0.33474852  0.56479605  0.51147241  1
  O  O17  1  0.09283702  0.67877020  0.55714497  1
  O  O18  1  0.66538846  0.43507440  0.48830836  1
  O  O19  1  0.90715983  0.32077964  0.44266940  1
  O  O20  1  0.15794165  0.43629015  0.08970012  1
  O  O21  1  0.40879041  0.33186381  0.09658577  1
  O  O22  1  0.84197610  0.56374485  0.91025805  1
  O  O23  1  0.59113707  0.66819056  -0.09666848  1
  O  O24  1  0.16540512  0.06482835  0.51153412  1
  O  O25  1  0.40726389  0.17897523  0.55722375  1
  O  O26  1  0.83478638  0.93518706  0.48877073  1
  O  O27  1  0.59287091  0.82120199  0.44280794  1
  O  O28  1  0.65800940  0.06365120  0.91034972  1
  O  O29  1  0.90877658  0.16836040  -0.09671573  1
  O  O30  1  0.34193257  0.93630698  0.08958066  1
  O  O31  1  0.09110049  0.83180776  0.09675692  1
