# generated using pymatgen
data_KP2Br3
_symmetry_space_group_name_H-M   'P 1'
_cell_length_a   7.11788589
_cell_length_b   7.11788572
_cell_length_c   7.87695712
_cell_angle_alpha   90.00003934
_cell_angle_beta   90.00004016
_cell_angle_gamma   119.99938938
_symmetry_Int_Tables_number   1
_chemical_formula_structural   KP2Br3
_chemical_formula_sum   'K2 P4 Br6'
_cell_volume   345.61598208
_cell_formula_units_Z   2
loop_
 _symmetry_equiv_pos_site_id
 _symmetry_equiv_pos_as_xyz
  1  'x, y, z'
loop_
 _atom_site_type_symbol
 _atom_site_label
 _atom_site_symmetry_multiplicity
 _atom_site_fract_x
 _atom_site_fract_y
 _atom_site_fract_z
 _atom_site_occupancy
  K  K0  1  0.00000017  -0.00000022  0.25000051  1
  K  K1  1  -0.00000017  0.00000022  0.74999910  1
  P  P2  1  0.33333282  0.66666667  0.00002942  1
  P  P3  1  0.33333333  0.66666719  0.49996338  1
  P  P4  1  0.66666666  0.33333282  0.50003649  1
  P  P5  1  0.66666719  0.33333334  -0.00002942  1
  Br  Br6  1  0.00012452  0.50006311  0.75000530  1
  Br  Br7  1  0.49993713  0.50006289  0.75000504  1
  Br  Br8  1  0.49993690  -0.00012451  0.75000480  1
  Br  Br9  1  0.50006503  0.00012836  0.24999538  1
  Br  Br10  1  0.50006479  0.49993518  0.24999512  1
  Br  Br11  1  -0.00012838  0.49993495  0.24999487  1
