# generated using pymatgen
data_NaBrO2
_symmetry_space_group_name_H-M   'P 1'
_cell_length_a   6.36246435
_cell_length_b   6.41449820
_cell_length_c   6.30989469
_cell_angle_alpha   90.00040123
_cell_angle_beta   90.00019873
_cell_angle_gamma   90.00221779
_symmetry_Int_Tables_number   1
_chemical_formula_structural   NaBrO2
_chemical_formula_sum   'Na4 Br4 O8'
_cell_volume   257.51952390
_cell_formula_units_Z   4
loop_
 _symmetry_equiv_pos_site_id
 _symmetry_equiv_pos_as_xyz
  1  'x, y, z'
loop_
 _atom_site_type_symbol
 _atom_site_label
 _atom_site_symmetry_multiplicity
 _atom_site_fract_x
 _atom_site_fract_y
 _atom_site_fract_z
 _atom_site_occupancy
  Na  Na0  1  0.49999211  0.63475841  0.74999824  1
  Na  Na1  1  -0.00001287  0.13477223  0.75000425  1
  Na  Na2  1  0.50000906  0.36522882  0.24999332  1
  Na  Na3  1  0.00001244  0.86524168  0.25000463  1
  Br  Br4  1  0.49997816  0.14161817  0.74999457  1
  Br  Br5  1  -0.00001252  0.64162274  0.75000210  1
  Br  Br6  1  0.50001703  0.85841401  0.25000852  1
  Br  Br7  1  0.00001209  0.35841524  0.24999697  1
  O  O8  1  0.16955759  0.80849255  0.89136241  1
  O  O9  1  0.83045252  0.80847989  0.60864340  1
  O  O10  1  0.33044703  0.30848610  0.89135742  1
  O  O11  1  0.66955942  0.30849763  0.60863327  1
  O  O12  1  0.83042537  0.19148399  0.10862303  1
  O  O13  1  0.16956519  0.19149988  0.39137483  1
  O  O14  1  0.66956442  0.69150117  0.10862933  1
  O  O15  1  0.33043296  0.69148749  0.39137373  1
