# generated using pymatgen
data_Na3(SiI)4
_symmetry_space_group_name_H-M   'P 1'
_cell_length_a   7.07457654
_cell_length_b   6.53383239
_cell_length_c   9.17306354
_cell_angle_alpha   89.99999036
_cell_angle_beta   89.99996310
_cell_angle_gamma   90.00068473
_symmetry_Int_Tables_number   1
_chemical_formula_structural   Na3(SiI)4
_chemical_formula_sum   'Na3 Si4 I4'
_cell_volume   424.01658174
_cell_formula_units_Z   1
loop_
 _symmetry_equiv_pos_site_id
 _symmetry_equiv_pos_as_xyz
  1  'x, y, z'
loop_
 _atom_site_type_symbol
 _atom_site_label
 _atom_site_symmetry_multiplicity
 _atom_site_fract_x
 _atom_site_fract_y
 _atom_site_fract_z
 _atom_site_occupancy
  Na  Na0  1  0.50000000  0.49999956  0.49999998  1
  Na  Na1  1  0.00000023  0.49999985  0.78250263  1
  Na  Na2  1  -0.00000030  0.50000040  0.21749750  1
  Si  Si3  1  0.34206939  0.33434880  0.96101014  1
  Si  Si4  1  0.65793188  0.66564254  0.96101076  1
  Si  Si5  1  0.65792974  0.33434945  0.03899020  1
  Si  Si6  1  0.34206913  0.66564191  0.03898943  1
  I  I7  1  0.00000050  0.24684534  0.49999997  1
  I  I8  1  0.50000000  0.00000006  0.49999996  1
  I  I9  1  -0.00000050  0.75315584  0.50000012  1
  I  I10  1  -0.00000007  0.00001627  -0.00000069  1
