# generated using pymatgen
data_KSO6
_symmetry_space_group_name_H-M   'P 1'
_cell_length_a   4.93614783
_cell_length_b   5.04633721
_cell_length_c   10.62233107
_cell_angle_alpha   90.33889849
_cell_angle_beta   88.30652867
_cell_angle_gamma   89.47045571
_symmetry_Int_Tables_number   1
_chemical_formula_structural   KSO6
_chemical_formula_sum   'K2 S2 O12'
_cell_volume   264.46466871
_cell_formula_units_Z   2
loop_
 _symmetry_equiv_pos_site_id
 _symmetry_equiv_pos_as_xyz
  1  'x, y, z'
loop_
 _atom_site_type_symbol
 _atom_site_label
 _atom_site_symmetry_multiplicity
 _atom_site_fract_x
 _atom_site_fract_y
 _atom_site_fract_z
 _atom_site_occupancy
  K  K0  1  -0.02391728  -0.01571229  0.41698373  1
  K  K1  1  0.46457737  0.60545744  -0.09081023  1
  S  S2  1  0.40999511  0.43769867  0.53751998  1
  S  S3  1  -0.06261552  0.15332576  0.00770984  1
  O  O4  1  0.84874021  0.83112575  0.69876356  1
  O  O5  1  0.95887806  0.18022035  0.74064390  1
  O  O6  1  0.13982050  0.11764096  0.82053878  1
  O  O7  1  0.00206784  0.70178172  0.76797004  1
  O  O8  1  0.48550805  0.15401810  0.52824419  1
  O  O9  1  0.13443225  0.49337877  0.49347342  1
  O  O10  1  0.60017511  0.60221391  0.35912716  1
  O  O11  1  0.59773633  0.22009587  0.25043760  1
  O  O12  1  0.40446567  0.66468819  0.28704423  1
  O  O13  1  0.40311775  0.32549693  0.19704257  1
  O  O14  1  0.66450476  0.08556129  -0.03526341  1
  O  O15  1  -0.02748621  0.44300857  0.02057462  1
