# generated using pymatgen
data_K(BeBr3)2
_symmetry_space_group_name_H-M   'P 1'
_cell_length_a   7.16639872
_cell_length_b   7.35663507
_cell_length_c   8.66346356
_cell_angle_alpha   96.01044032
_cell_angle_beta   88.46249455
_cell_angle_gamma   127.62269245
_symmetry_Int_Tables_number   1
_chemical_formula_structural   K(BeBr3)2
_chemical_formula_sum   'K1 Be2 Br6'
_cell_volume   359.37448749
_cell_formula_units_Z   1
loop_
 _symmetry_equiv_pos_site_id
 _symmetry_equiv_pos_as_xyz
  1  'x, y, z'
loop_
 _atom_site_type_symbol
 _atom_site_label
 _atom_site_symmetry_multiplicity
 _atom_site_fract_x
 _atom_site_fract_y
 _atom_site_fract_z
 _atom_site_occupancy
  K  K0  1  0.00003097  0.00003423  0.00000864  1
  Be  Be1  1  0.31544488  0.65855683  0.74390125  1
  Be  Be2  1  0.68453366  0.34142404  0.25609589  1
  Br  Br3  1  0.67947581  0.62121671  0.26189811  1
  Br  Br4  1  0.32049233  0.37876599  0.73803508  1
  Br  Br5  1  0.63685007  -0.01446637  0.74605457  1
  Br  Br6  1  0.36316806  0.01446818  0.25396121  1
  Br  Br7  1  0.00537701  0.62330103  0.74496171  1
  Br  Br8  1  -0.00537279  0.37669936  0.25508354  1
