# generated using pymatgen
data_LiIO5
_symmetry_space_group_name_H-M   'P 1'
_cell_length_a   5.51409514
_cell_length_b   5.54401293
_cell_length_c   7.73582417
_cell_angle_alpha   86.14027041
_cell_angle_beta   109.97456778
_cell_angle_gamma   89.24373651
_symmetry_Int_Tables_number   1
_chemical_formula_structural   LiIO5
_chemical_formula_sum   'Li2 I2 O10'
_cell_volume   221.59047944
_cell_formula_units_Z   2
loop_
 _symmetry_equiv_pos_site_id
 _symmetry_equiv_pos_as_xyz
  1  'x, y, z'
loop_
 _atom_site_type_symbol
 _atom_site_label
 _atom_site_symmetry_multiplicity
 _atom_site_fract_x
 _atom_site_fract_y
 _atom_site_fract_z
 _atom_site_occupancy
  Li  Li0  1  -0.10908348  0.15030208  0.23082642  1
  Li  Li1  1  0.09590472  -0.11077037  0.81293278  1
  I  I2  1  0.49410510  0.51180753  0.34816699  1
  I  I3  1  0.49846535  0.49109121  0.84980825  1
  O  O4  1  0.65822742  0.42307626  0.16511963  1
  O  O5  1  0.36986481  0.53809911  0.56530922  1
  O  O6  1  0.84869868  0.26387062  0.58810932  1
  O  O7  1  0.76011789  0.10242703  0.67479932  1
  O  O8  1  0.01121105  0.98187826  0.47901854  1
  O  O9  1  -0.10109431  0.82424886  0.55325064  1
  O  O10  1  0.92940519  0.86665574  0.10669598  1
  O  O11  1  0.10580335  0.75709523  0.06483960  1
  O  O12  1  0.29355120  0.07927911  0.03939562  1
  O  O13  1  0.14482303  0.20427266  0.09794095  1
