# generated using pymatgen
data_Li3SiI
_symmetry_space_group_name_H-M   'P 1'
_cell_length_a   6.97948623
_cell_length_b   7.91613305
_cell_length_c   3.93137089
_cell_angle_alpha   89.99986829
_cell_angle_beta   89.99999840
_cell_angle_gamma   90.00000435
_symmetry_Int_Tables_number   1
_chemical_formula_structural   Li3SiI
_chemical_formula_sum   'Li6 Si2 I2'
_cell_volume   217.21037089
_cell_formula_units_Z   2
loop_
 _symmetry_equiv_pos_site_id
 _symmetry_equiv_pos_as_xyz
  1  'x, y, z'
loop_
 _atom_site_type_symbol
 _atom_site_label
 _atom_site_symmetry_multiplicity
 _atom_site_fract_x
 _atom_site_fract_y
 _atom_site_fract_z
 _atom_site_occupancy
  Li  Li0  1  0.24999837  0.50000033  0.50039249  1
  Li  Li1  1  0.75000153  0.50000005  0.49960638  1
  Li  Li2  1  0.75000070  0.20986266  0.00066634  1
  Li  Li3  1  0.75000074  0.79013747  0.00064390  1
  Li  Li4  1  0.24999948  0.79013681  0.99935182  1
  Li  Li5  1  0.24999936  0.20986284  0.99934009  1
  Si  Si6  1  0.50000036  0.50000005  -0.00000080  1
  Si  Si7  1  -0.00000044  0.50000008  -0.00000079  1
  I  I8  1  0.50000008  -0.00000020  0.50000004  1
  I  I9  1  -0.00000018  -0.00000008  0.50000054  1
