# generated using pymatgen
data_NaClO2
_symmetry_space_group_name_H-M   'P 1'
_cell_length_a   9.84590420
_cell_length_b   9.70110132
_cell_length_c   5.49169836
_cell_angle_alpha   83.82149652
_cell_angle_beta   83.87951266
_cell_angle_gamma   124.93234241
_symmetry_Int_Tables_number   1
_chemical_formula_structural   NaClO2
_chemical_formula_sum   'Na6 Cl6 O12'
_cell_volume   418.33187539
_cell_formula_units_Z   6
loop_
 _symmetry_equiv_pos_site_id
 _symmetry_equiv_pos_as_xyz
  1  'x, y, z'
loop_
 _atom_site_type_symbol
 _atom_site_label
 _atom_site_symmetry_multiplicity
 _atom_site_fract_x
 _atom_site_fract_y
 _atom_site_fract_z
 _atom_site_occupancy
  Na  Na0  1  0.06488599  0.43070022  0.68553115  1
  Na  Na1  1  0.79475025  0.65621955  0.53171319  1
  Na  Na2  1  0.87967071  0.09989007  0.38690008  1
  Na  Na3  1  0.19703946  0.85896211  0.85503599  1
  Na  Na4  1  0.35186929  0.26900958  0.20039643  1
  Na  Na5  1  0.62214175  0.75019157  0.05553894  1
  Cl  Cl6  1  0.25726102  0.50669365  0.06707050  1
  Cl  Cl7  1  0.78087269  0.53369331  0.04818584  1
  Cl  Cl8  1  0.67476937  0.10062951  0.92151553  1
  Cl  Cl9  1  0.21718666  0.78055843  0.37406030  1
  Cl  Cl10  1  0.52451723  0.28952677  0.61431940  1
  Cl  Cl11  1  0.49321804  0.77776192  0.54376528  1
  O  O12  1  0.15949722  0.35788541  0.33505094  1
  O  O13  1  0.16942987  0.19132237  0.80601985  1
  O  O14  1  0.01801216  0.13574453  0.82866939  1
  O  O15  1  0.62336329  0.52231361  0.22849041  1
  O  O16  1  -0.16582593  0.22679363  0.04506737  1
  O  O17  1  -0.01588838  -0.04845006  0.60396827  1
  O  O18  1  0.14245179  0.02334910  0.56539080  1
  O  O19  1  0.03946928  0.65471138  -0.40179957  1
  O  O20  1  0.44238154  0.14192611  -0.12387173  1
  O  O21  1  0.10863151  -0.00448514  0.10250426  1
  O  O22  1  0.95252666  -0.06238845  0.15399015  1
  O  O23  1  0.66776853  -0.19255917  0.62244782  1
