# generated using pymatgen
data_Li4Br4O
_symmetry_space_group_name_H-M   'P 1'
_cell_length_a   3.24113929
_cell_length_b   7.69943350
_cell_length_c   7.16579674
_cell_angle_alpha   89.57267668
_cell_angle_beta   90.06836427
_cell_angle_gamma   89.20977622
_symmetry_Int_Tables_number   1
_chemical_formula_structural   Li4Br4O
_chemical_formula_sum   'Li4 Br4 O1'
_cell_volume   178.79987136
_cell_formula_units_Z   1
loop_
 _symmetry_equiv_pos_site_id
 _symmetry_equiv_pos_as_xyz
  1  'x, y, z'
loop_
 _atom_site_type_symbol
 _atom_site_label
 _atom_site_symmetry_multiplicity
 _atom_site_fract_x
 _atom_site_fract_y
 _atom_site_fract_z
 _atom_site_occupancy
  Li  Li0  1  0.44754422  0.22507139  -0.15747572  1
  Li  Li1  1  0.45195930  -0.02646341  0.34552731  1
  Li  Li2  1  -0.07035757  0.51251015  0.67672246  1
  Li  Li3  1  -0.07092295  0.50833831  0.01235171  1
  Br  Br4  1  -0.05265034  0.16667685  0.57550119  1
  Br  Br5  1  -0.05017806  0.15947729  0.10839257  1
  Br  Br6  1  -0.04839111  0.68332747  0.34097523  1
  Br  Br7  1  0.46542320  0.79412734  0.83612220  1
  O  O8  1  0.42757331  0.47693462  0.84521638  1
