# generated using pymatgen
data_Na3(B2I)4
_symmetry_space_group_name_H-M   'P 1'
_cell_length_a   8.32856916
_cell_length_b   8.72783694
_cell_length_c   6.66233700
_cell_angle_alpha   77.53032112
_cell_angle_beta   116.52859990
_cell_angle_gamma   111.30401569
_symmetry_Int_Tables_number   1
_chemical_formula_structural   Na3(B2I)4
_chemical_formula_sum   'Na3 B8 I4'
_cell_volume   402.85190215
_cell_formula_units_Z   1
loop_
 _symmetry_equiv_pos_site_id
 _symmetry_equiv_pos_as_xyz
  1  'x, y, z'
loop_
 _atom_site_type_symbol
 _atom_site_label
 _atom_site_symmetry_multiplicity
 _atom_site_fract_x
 _atom_site_fract_y
 _atom_site_fract_z
 _atom_site_occupancy
  Na  Na0  1  0.16302821  0.13391216  0.46272676  1
  Na  Na1  1  0.05871284  0.48064809  0.66833087  1
  Na  Na2  1  0.51077874  -0.20774367  0.45531572  1
  B  B3  1  0.05736970  0.13871077  -0.18210305  1
  B  B4  1  0.86725925  0.87224189  0.09058490  1
  B  B5  1  0.85505191  -0.06035788  0.80523002  1
  B  B6  1  0.89506947  0.14858820  -0.13502013  1
  B  B7  1  0.00192645  0.82381919  -0.01471464  1
  B  B8  1  0.06904862  0.02617205  0.07291417  1
  B  B9  1  0.10545778  -0.02666468  0.85106377  1
  B  B10  1  0.74199178  0.00160834  -0.06863489  1
  I  I11  1  0.41839608  0.45152758  0.69706057  1
  I  I12  1  0.76381714  0.67630523  0.31598349  1
  I  I13  1  0.05679419  0.58528588  0.09429454  1
  I  I14  1  0.43529784  -0.04405316  -0.11303208  1
