# generated using pymatgen
data_Li7P4I5
_symmetry_space_group_name_H-M   'P 1'
_cell_length_a   8.65351047
_cell_length_b   8.65246232
_cell_length_c   7.37738418
_cell_angle_alpha   89.98717228
_cell_angle_beta   90.01176552
_cell_angle_gamma   89.98165338
_symmetry_Int_Tables_number   1
_chemical_formula_structural   Li7P4I5
_chemical_formula_sum   'Li7 P4 I5'
_cell_volume   552.37548751
_cell_formula_units_Z   1
loop_
 _symmetry_equiv_pos_site_id
 _symmetry_equiv_pos_as_xyz
  1  'x, y, z'
loop_
 _atom_site_type_symbol
 _atom_site_label
 _atom_site_symmetry_multiplicity
 _atom_site_fract_x
 _atom_site_fract_y
 _atom_site_fract_z
 _atom_site_occupancy
  Li  Li0  1  0.25506256  0.76386919  0.48846090  1
  Li  Li1  1  0.76392257  0.74491494  0.51162578  1
  Li  Li2  1  0.74489777  0.23613655  0.48877211  1
  Li  Li3  1  0.23615552  0.25511175  0.51118125  1
  Li  Li4  1  0.00013053  0.49997771  0.42711678  1
  Li  Li5  1  0.49984425  0.00006255  0.57280350  1
  Li  Li6  1  0.50004737  0.49991538  0.00001528  1
  P  P7  1  0.05748658  0.40080973  0.74341696  1
  P  P8  1  0.59888162  0.05759862  0.25640759  1
  P  P9  1  0.40104394  0.94266088  0.25657679  1
  P  P10  1  0.94242822  0.59867384  0.74363456  1
  I  I11  1  0.00000197  -0.00008068  0.49999063  1
  I  I12  1  0.73604826  0.49848377  0.25830772  1
  I  I13  1  0.49832570  0.26405319  0.74169243  1
  I  I14  1  0.26410192  0.50180205  0.25820104  1
  I  I15  1  0.50162122  0.73601052  0.74179666  1
