# generated using pymatgen
data_K2SI
_symmetry_space_group_name_H-M   'P 1'
_cell_length_a   6.05632321
_cell_length_b   5.76106297
_cell_length_c   6.54013356
_cell_angle_alpha   104.01625516
_cell_angle_beta   89.85721076
_cell_angle_gamma   120.05125687
_symmetry_Int_Tables_number   1
_chemical_formula_structural   K2SI
_chemical_formula_sum   'K2 S1 I1'
_cell_volume   189.70935372
_cell_formula_units_Z   1
loop_
 _symmetry_equiv_pos_site_id
 _symmetry_equiv_pos_as_xyz
  1  'x, y, z'
loop_
 _atom_site_type_symbol
 _atom_site_label
 _atom_site_symmetry_multiplicity
 _atom_site_fract_x
 _atom_site_fract_y
 _atom_site_fract_z
 _atom_site_occupancy
  K  K0  1  0.03963366  0.07622418  0.45039555  1
  K  K1  1  0.59720184  0.19161358  0.95896734  1
  S  S2  1  -0.00638354  -0.02412465  -0.06618394  1
  I  I3  1  0.70288138  0.42295356  0.51267544  1
