# generated using pymatgen
data_LiIO6
_symmetry_space_group_name_H-M   'P 1'
_cell_length_a   7.91606953
_cell_length_b   7.91938074
_cell_length_c   8.71910061
_cell_angle_alpha   103.44333527
_cell_angle_beta   95.71878712
_cell_angle_gamma   90.03850579
_symmetry_Int_Tables_number   1
_chemical_formula_structural   LiIO6
_chemical_formula_sum   'Li4 I4 O24'
_cell_volume   528.82042830
_cell_formula_units_Z   4
loop_
 _symmetry_equiv_pos_site_id
 _symmetry_equiv_pos_as_xyz
  1  'x, y, z'
loop_
 _atom_site_type_symbol
 _atom_site_label
 _atom_site_symmetry_multiplicity
 _atom_site_fract_x
 _atom_site_fract_y
 _atom_site_fract_z
 _atom_site_occupancy
  Li  Li0  1  0.50144785  0.50069803  0.19476990  1
  Li  Li1  1  0.00089086  0.00546961  0.69705909  1
  Li  Li2  1  0.50128206  0.50533875  0.69693781  1
  Li  Li3  1  0.00178803  0.00075405  0.19542258  1
  I  I4  1  0.00286750  0.51312775  0.72184528  1
  I  I5  1  0.00556105  0.50726790  0.21811758  1
  I  I6  1  0.50198659  0.01089917  0.71389333  1
  I  I7  1  0.50541538  0.00657904  0.21441730  1
  O  O8  1  0.26453947  0.61397665  0.70918924  1
  O  O9  1  0.23962849  0.73193291  0.60722803  1
  O  O10  1  0.39654298  0.27195104  0.70939305  1
  O  O11  1  0.24001272  0.23547189  0.60767596  1
  O  O12  1  0.74063271  0.40441935  0.71354925  1
  O  O13  1  0.74101867  0.23589046  0.60666130  1
  O  O14  1  0.60424114  0.74272444  0.69817892  1
  O  O15  1  0.74439467  0.73368610  0.60685690  1
  O  O16  1  0.89631235  0.77275014  0.71650656  1
  O  O17  1  0.23871866  0.90361151  0.70654763  1
  O  O18  1  0.10573130  0.24641210  0.70727912  1
  O  O19  1  0.76443591  0.11117281  0.70097808  1
  O  O20  1  0.10990150  0.76728532  0.21225917  1
  O  O21  1  0.24082086  0.72904961  0.10637715  1
  O  O22  1  0.76654977  0.89935862  0.20962654  1
  O  O23  1  0.74455181  0.72934823  0.10498564  1
  O  O24  1  0.89943138  0.24085899  0.20467962  1
  O  O25  1  0.74284210  0.22926796  0.10544310  1
  O  O26  1  0.23973955  0.10612382  0.19900211  1
  O  O27  1  0.24361678  0.23101716  0.10535839  1
  O  O28  1  0.26634906  0.39961665  0.21298014  1
  O  O29  1  0.39935622  0.73977129  0.20167180  1
  O  O30  1  0.74023603  0.60721472  0.20167275  1
  O  O31  1  0.60915656  0.26695392  0.20753157  1
