# generated using pymatgen
data_NaS3Br4
_symmetry_space_group_name_H-M   'P 1'
_cell_length_a   5.76276241
_cell_length_b   5.76068548
_cell_length_c   5.76225314
_cell_angle_alpha   90.00003166
_cell_angle_beta   90.00001193
_cell_angle_gamma   90.00000724
_symmetry_Int_Tables_number   1
_chemical_formula_structural   NaS3Br4
_chemical_formula_sum   'Na1 S3 Br4'
_cell_volume   191.29217809
_cell_formula_units_Z   1
loop_
 _symmetry_equiv_pos_site_id
 _symmetry_equiv_pos_as_xyz
  1  'x, y, z'
loop_
 _atom_site_type_symbol
 _atom_site_label
 _atom_site_symmetry_multiplicity
 _atom_site_fract_x
 _atom_site_fract_y
 _atom_site_fract_z
 _atom_site_occupancy
  Na  Na0  1  0.50000000  0.49999999  0.49999999  1
  S  S1  1  0.00000000  0.00000001  0.49999999  1
  S  S2  1  -0.00000000  0.50000001  0.00000002  1
  S  S3  1  0.49999998  -0.00000002  0.00000001  1
  Br  Br4  1  0.00000001  0.00000001  0.00000001  1
  Br  Br5  1  0.50000001  0.50000000  -0.00000001  1
  Br  Br6  1  0.50000000  -0.00000000  0.50000000  1
  Br  Br7  1  0.00000000  0.50000000  0.49999999  1
