# generated using pymatgen
data_K2IN
_symmetry_space_group_name_H-M   'P 1'
_cell_length_a   5.35190148
_cell_length_b   5.67990441
_cell_length_c   5.88840296
_cell_angle_alpha   92.92061875
_cell_angle_beta   82.44760405
_cell_angle_gamma   119.89797374
_symmetry_Int_Tables_number   1
_chemical_formula_structural   K2IN
_chemical_formula_sum   'K2 I1 N1'
_cell_volume   153.80718069
_cell_formula_units_Z   1
loop_
 _symmetry_equiv_pos_site_id
 _symmetry_equiv_pos_as_xyz
  1  'x, y, z'
loop_
 _atom_site_type_symbol
 _atom_site_label
 _atom_site_symmetry_multiplicity
 _atom_site_fract_x
 _atom_site_fract_y
 _atom_site_fract_z
 _atom_site_occupancy
  K  K0  1  -0.01443580  -0.01917749  0.31828128  1
  K  K1  1  0.36539854  0.53980713  0.81878691  1
  I  I2  1  0.69183741  0.34148268  0.20475226  1
  N  N3  1  -0.04280015  -0.02877899  0.79948258  1
