# generated using pymatgen
data_Li(Br2O)4
_symmetry_space_group_name_H-M   'P 1'
_cell_length_a   6.44291054
_cell_length_b   6.44238019
_cell_length_c   7.61023217
_cell_angle_alpha   90.00220280
_cell_angle_beta   90.00240546
_cell_angle_gamma   90.00729003
_symmetry_Int_Tables_number   1
_chemical_formula_structural   Li(Br2O)4
_chemical_formula_sum   'Li1 Br8 O4'
_cell_volume   315.88307292
_cell_formula_units_Z   1
loop_
 _symmetry_equiv_pos_site_id
 _symmetry_equiv_pos_as_xyz
  1  'x, y, z'
loop_
 _atom_site_type_symbol
 _atom_site_label
 _atom_site_symmetry_multiplicity
 _atom_site_fract_x
 _atom_site_fract_y
 _atom_site_fract_z
 _atom_site_occupancy
  Li  Li0  1  0.00013969  -0.00007192  -0.00000662  1
  Br  Br1  1  0.08953978  0.73614188  0.58904077  1
  Br  Br2  1  0.91044262  0.26386141  0.58904577  1
  Br  Br3  1  0.26384359  0.08955452  0.41091422  1
  Br  Br4  1  0.73610398  0.91045175  0.41092534  1
  Br  Br5  1  0.28011116  0.55066158  0.18707773  1
  Br  Br6  1  0.71991162  0.44932350  0.18707903  1
  Br  Br7  1  0.55070406  0.71992853  0.81296488  1
  Br  Br8  1  0.44930324  0.28008623  0.81294066  1
  O  O9  1  0.00000453  0.50000542  0.72151032  1
  O  O10  1  0.49999431  0.00001157  0.27847897  1
  O  O11  1  -0.00003666  0.50003409  0.08576667  1
  O  O12  1  0.49993808  0.00001144  0.91426227  1
