# generated using pymatgen
data_K4SBr3
_symmetry_space_group_name_H-M   'P 1'
_cell_length_a   7.99779803
_cell_length_b   7.99779831
_cell_length_c   7.99779856
_cell_angle_alpha   90.00066608
_cell_angle_beta   89.99981453
_cell_angle_gamma   90.00047547
_symmetry_Int_Tables_number   1
_chemical_formula_structural   K4SBr3
_chemical_formula_sum   'K8 S2 Br6'
_cell_volume   511.57738967
_cell_formula_units_Z   2
loop_
 _symmetry_equiv_pos_site_id
 _symmetry_equiv_pos_as_xyz
  1  'x, y, z'
loop_
 _atom_site_type_symbol
 _atom_site_label
 _atom_site_symmetry_multiplicity
 _atom_site_fract_x
 _atom_site_fract_y
 _atom_site_fract_z
 _atom_site_occupancy
  K  K0  1  0.74811404  0.74811295  0.74811387  1
  K  K1  1  0.24812571  0.24812417  0.24812556  1
  K  K2  1  0.25188641  0.25188529  0.74811515  1
  K  K3  1  0.24812661  0.75187396  0.75187532  1
  K  K4  1  0.75187255  0.24812798  0.75187246  1
  K  K5  1  0.74811496  0.25188570  0.25188651  1
  K  K6  1  0.25188376  0.74811689  0.25188354  1
  K  K7  1  0.75187509  0.75187355  0.24812682  1
  S  S8  1  0.50000450  0.49999797  0.50000386  1
  S  S9  1  0.00000391  -0.00000114  0.00000315  1
  Br  Br10  1  -0.00000215  0.00000078  0.50000030  1
  Br  Br11  1  0.00000056  0.50000078  0.49999826  1
  Br  Br12  1  0.50000043  0.00000078  -0.00000178  1
  Br  Br13  1  0.49999787  -0.00000032  0.49999825  1
  Br  Br14  1  -0.00000212  0.49999993  -0.00000178  1
  Br  Br15  1  0.49999788  0.50000074  0.00000051  1
