# generated using pymatgen
data_Na2PO4
_symmetry_space_group_name_H-M   'P 1'
_cell_length_a   5.53798632
_cell_length_b   5.83503018
_cell_length_c   6.67871316
_cell_angle_alpha   99.52885754
_cell_angle_beta   100.33611001
_cell_angle_gamma   102.77706007
_symmetry_Int_Tables_number   1
_chemical_formula_structural   Na2PO4
_chemical_formula_sum   'Na4 P2 O8'
_cell_volume   202.26585440
_cell_formula_units_Z   2
loop_
 _symmetry_equiv_pos_site_id
 _symmetry_equiv_pos_as_xyz
  1  'x, y, z'
loop_
 _atom_site_type_symbol
 _atom_site_label
 _atom_site_symmetry_multiplicity
 _atom_site_fract_x
 _atom_site_fract_y
 _atom_site_fract_z
 _atom_site_occupancy
  Na  Na0  1  0.03438921  0.02160020  0.00788276  1
  Na  Na1  1  -0.01987595  0.10195888  0.51414107  1
  Na  Na2  1  0.59504595  0.48522958  0.00690006  1
  Na  Na3  1  0.65520804  0.48720562  0.54880095  1
  P  P4  1  0.49511297  -0.04929790  0.71468520  1
  P  P5  1  0.14918008  0.63467270  0.33985921  1
  O  O6  1  0.24810989  -0.00591834  0.75822501  1
  O  O7  1  -0.02267764  0.77637086  0.24458866  1
  O  O8  1  0.04217175  0.47839463  0.47742199  1
  O  O9  1  0.61088696  0.77767052  0.82427733  1
  O  O10  1  0.69598461  0.18386402  0.72723387  1
  O  O11  1  0.37311085  0.31795784  0.23123988  1
  O  O12  1  0.42513098  0.81144226  0.45976233  1
  O  O13  1  0.21822229  0.47884915  0.14498167  1
