# generated using pymatgen
data_Na2SCl
_symmetry_space_group_name_H-M   'P 1'
_cell_length_a   7.50771295
_cell_length_b   7.50771274
_cell_length_c   6.14706440
_cell_angle_alpha   89.99968761
_cell_angle_beta   89.99968813
_cell_angle_gamma   90.00001036
_symmetry_Int_Tables_number   1
_chemical_formula_structural   Na2SCl
_chemical_formula_sum   'Na8 S4 Cl4'
_cell_volume   346.48390841
_cell_formula_units_Z   4
loop_
 _symmetry_equiv_pos_site_id
 _symmetry_equiv_pos_as_xyz
  1  'x, y, z'
loop_
 _atom_site_type_symbol
 _atom_site_label
 _atom_site_symmetry_multiplicity
 _atom_site_fract_x
 _atom_site_fract_y
 _atom_site_fract_z
 _atom_site_occupancy
  Na  Na0  1  0.74553961  0.25388394  0.49999135  1
  Na  Na1  1  0.25388391  0.25446038  -0.00000679  1
  Na  Na2  1  0.25446039  0.74611606  0.50000881  1
  Na  Na3  1  0.74611610  0.74553962  0.00000663  1
  Na  Na4  1  0.24611549  0.75446088  0.00000881  1
  Na  Na5  1  0.24553912  0.24611552  0.50000662  1
  Na  Na6  1  0.75388451  0.24553912  -0.00000865  1
  Na  Na7  1  0.75446088  0.75388448  0.49999321  1
  S  S8  1  0.49999861  0.49999879  0.24999945  1
  S  S9  1  0.50000139  0.50000121  0.75000055  1
  S  S10  1  0.00000121  0.00000139  0.25000055  1
  S  S11  1  -0.00000121  -0.00000139  0.74999945  1
  Cl  Cl12  1  0.00000000  0.50000000  -0.00000001  1
  Cl  Cl13  1  -0.00000000  0.50000000  0.49999998  1
  Cl  Cl14  1  0.50000000  0.00000000  0.50000002  1
  Cl  Cl15  1  0.50000000  -0.00000000  0.00000002  1
