# generated using pymatgen
data_Na6SBr4
_symmetry_space_group_name_H-M   'P 1'
_cell_length_a   8.84044711
_cell_length_b   8.84050314
_cell_length_c   8.84045532
_cell_angle_alpha   90.00013521
_cell_angle_beta   89.99996619
_cell_angle_gamma   89.99975415
_symmetry_Int_Tables_number   1
_chemical_formula_structural   Na6SBr4
_chemical_formula_sum   'Na12 S2 Br8'
_cell_volume   690.91694906
_cell_formula_units_Z   2
loop_
 _symmetry_equiv_pos_site_id
 _symmetry_equiv_pos_as_xyz
  1  'x, y, z'
loop_
 _atom_site_type_symbol
 _atom_site_label
 _atom_site_symmetry_multiplicity
 _atom_site_fract_x
 _atom_site_fract_y
 _atom_site_fract_z
 _atom_site_occupancy
  Na  Na0  1  0.50000008  -0.00000007  0.25000753  1
  Na  Na1  1  0.50000004  0.74999356  0.00000008  1
  Na  Na2  1  0.25000484  0.49999996  -0.00000009  1
  Na  Na3  1  0.00000009  0.49999972  0.74999622  1
  Na  Na4  1  0.00000009  0.25000568  0.50000029  1
  Na  Na5  1  0.74999193  -0.00000008  0.49999992  1
  Na  Na6  1  0.49999996  0.25000645  -0.00000008  1
  Na  Na7  1  0.49999992  0.00000007  0.74999246  1
  Na  Na8  1  -0.00000009  0.74999433  0.49999971  1
  Na  Na9  1  0.25000805  0.00000008  0.50000008  1
  Na  Na10  1  0.74999516  0.50000004  0.00000009  1
  Na  Na11  1  -0.00000009  0.50000028  0.25000378  1
  S  S12  1  0.50000000  0.50000000  0.50000000  1
  S  S13  1  0.00000000  0.00000000  0.00000000  1
  Br  Br14  1  0.24999724  0.75000144  0.75000096  1
  Br  Br15  1  0.75000276  0.24999856  0.24999904  1
  Br  Br16  1  0.24999989  0.75000044  0.25000016  1
  Br  Br17  1  0.24999980  0.24999958  0.75000027  1
  Br  Br18  1  0.75000011  0.24999956  0.74999984  1
  Br  Br19  1  0.75000020  0.75000042  0.24999973  1
  Br  Br20  1  0.24999677  0.24999799  0.24999824  1
  Br  Br21  1  0.75000323  0.75000201  0.75000176  1
