# generated using pymatgen
data_Li2BI3
_symmetry_space_group_name_H-M   'P 1'
_cell_length_a   9.83310984
_cell_length_b   7.63788967
_cell_length_c   12.61778084
_cell_angle_alpha   87.54109988
_cell_angle_beta   84.08602433
_cell_angle_gamma   66.42994360
_symmetry_Int_Tables_number   1
_chemical_formula_structural   Li2BI3
_chemical_formula_sum   'Li8 B4 I12'
_cell_volume   863.96348598
_cell_formula_units_Z   4
loop_
 _symmetry_equiv_pos_site_id
 _symmetry_equiv_pos_as_xyz
  1  'x, y, z'
loop_
 _atom_site_type_symbol
 _atom_site_label
 _atom_site_symmetry_multiplicity
 _atom_site_fract_x
 _atom_site_fract_y
 _atom_site_fract_z
 _atom_site_occupancy
  Li  Li0  1  0.60932277  0.24785558  0.48413440  1
  Li  Li1  1  0.96997149  0.67175986  0.20369622  1
  Li  Li2  1  0.32485283  -0.07743485  0.11603331  1
  Li  Li3  1  0.60855676  0.66425173  0.45164458  1
  Li  Li4  1  0.15902988  0.32132890  0.52071381  1
  Li  Li5  1  0.88143516  0.90858558  0.56238166  1
  Li  Li6  1  0.95305967  0.24991129  0.08776858  1
  Li  Li7  1  0.35010193  0.55698813  0.06460188  1
  B  B8  1  -0.14760045  0.10582376  0.41620499  1
  B  B9  1  -0.21297752  0.53729070  -0.22708230  1
  B  B10  1  0.53989650  -0.35399217  0.08624316  1
  B  B11  1  0.48710207  0.52785003  0.57495123  1
  I  I12  1  -0.08662239  0.61222878  0.42336067  1
  I  I13  1  0.69917665  0.44222284  -0.03330358  1
  I  I14  1  0.44046506  0.05856183  0.45248315  1
  I  I15  1  0.07913314  -0.12955439  0.04654361  1
  I  I16  1  0.19933539  0.32100357  0.12438104  1
  I  I17  1  0.65313637  0.81107462  0.16091229  1
  I  I18  1  -0.03771129  0.26501316  0.70016744  1
  I  I19  1  -0.13999103  0.78278205  0.77874704  1
  I  I20  1  0.74729016  0.25980009  0.26883156  1
  I  I21  1  0.09824091  0.00067880  0.39208823  1
  I  I22  1  0.26618700  0.54087489  0.64781018  1
  I  I23  1  0.55860894  0.67509522  0.69668684  1
