# generated using pymatgen
data_LiBrO2
_symmetry_space_group_name_H-M   'P 1'
_cell_length_a   3.39669857
_cell_length_b   5.76286859
_cell_length_c   5.78342711
_cell_angle_alpha   90.00012620
_cell_angle_beta   90.00000285
_cell_angle_gamma   89.99352076
_symmetry_Int_Tables_number   1
_chemical_formula_structural   LiBrO2
_chemical_formula_sum   'Li2 Br2 O4'
_cell_volume   113.20900903
_cell_formula_units_Z   2
loop_
 _symmetry_equiv_pos_site_id
 _symmetry_equiv_pos_as_xyz
  1  'x, y, z'
loop_
 _atom_site_type_symbol
 _atom_site_label
 _atom_site_symmetry_multiplicity
 _atom_site_fract_x
 _atom_site_fract_y
 _atom_site_fract_z
 _atom_site_occupancy
  Li  Li0  1  0.49999068  0.49999493  0.50000001  1
  Li  Li1  1  -0.00000022  0.00001130  -0.00000001  1
  Br  Br2  1  -0.00000047  0.50001123  0.00000001  1
  Br  Br3  1  0.49999711  0.00000153  0.49999999  1
  O  O4  1  0.13824572  0.24545329  0.49999821  1
  O  O5  1  0.86177153  0.75451138  0.50000179  1
  O  O6  1  0.63819027  0.25450407  0.00000001  1
  O  O7  1  0.36180538  0.74551229  -0.00000001  1
