# generated using pymatgen
data_K2IO
_symmetry_space_group_name_H-M   'P 1'
_cell_length_a   5.80243122
_cell_length_b   5.80243136
_cell_length_c   7.47515269
_cell_angle_alpha   90.00000312
_cell_angle_beta   90.00001049
_cell_angle_gamma   90.00000011
_symmetry_Int_Tables_number   1
_chemical_formula_structural   K2IO
_chemical_formula_sum   'K4 I2 O2'
_cell_volume   251.67500189
_cell_formula_units_Z   2
loop_
 _symmetry_equiv_pos_site_id
 _symmetry_equiv_pos_as_xyz
  1  'x, y, z'
loop_
 _atom_site_type_symbol
 _atom_site_label
 _atom_site_symmetry_multiplicity
 _atom_site_fract_x
 _atom_site_fract_y
 _atom_site_fract_z
 _atom_site_occupancy
  K  K0  1  0.49999996  -0.00000002  0.74999999  1
  K  K1  1  0.00000003  0.49999997  0.75000000  1
  K  K2  1  -0.00000002  0.50000003  0.25000000  1
  K  K3  1  0.50000004  0.00000001  0.25000001  1
  I  I4  1  0.50000000  0.50000000  0.50000000  1
  I  I5  1  -0.00000000  0.00000000  -0.00000000  1
  O  O6  1  -0.00000000  0.00000000  0.50000000  1
  O  O7  1  0.50000000  0.50000000  -0.00000000  1
