# generated using pymatgen
data_KSi2O3
_symmetry_space_group_name_H-M   'P 1'
_cell_length_a   5.18296332
_cell_length_b   5.18296603
_cell_length_c   9.02475257
_cell_angle_alpha   89.99975944
_cell_angle_beta   90.00005281
_cell_angle_gamma   120.00036487
_symmetry_Int_Tables_number   1
_chemical_formula_structural   KSi2O3
_chemical_formula_sum   'K2 Si4 O6'
_cell_volume   209.95239675
_cell_formula_units_Z   2
loop_
 _symmetry_equiv_pos_site_id
 _symmetry_equiv_pos_as_xyz
  1  'x, y, z'
loop_
 _atom_site_type_symbol
 _atom_site_label
 _atom_site_symmetry_multiplicity
 _atom_site_fract_x
 _atom_site_fract_y
 _atom_site_fract_z
 _atom_site_occupancy
  K  K0  1  0.00000246  0.00000421  0.71953867  1
  K  K1  1  0.00000918  0.00000524  0.21954763  1
  Si  Si2  1  0.33333600  0.66668054  -0.00541042  1
  Si  Si3  1  0.66666911  0.33333307  -0.04026498  1
  Si  Si4  1  0.66666426  0.33333321  0.49460563  1
  Si  Si5  1  0.33333092  0.66666330  0.45974785  1
  O  O6  1  0.56706158  -0.00512005  0.89863957  1
  O  O7  1  0.00513281  0.57218887  0.89864419  1
  O  O8  1  0.42782482  0.43293953  0.89864887  1
  O  O9  1  0.57215769  0.56705766  0.39862177  1
  O  O10  1  0.43292779  0.00509243  0.39864173  1
  O  O11  1  -0.00511661  0.42782200  0.39863969  1
