# generated using pymatgen
data_Li2ICl6
_symmetry_space_group_name_H-M   'P 1'
_cell_length_a   5.04519665
_cell_length_b   4.82055903
_cell_length_c   10.26778752
_cell_angle_alpha   91.06459101
_cell_angle_beta   81.37933184
_cell_angle_gamma   102.89371709
_symmetry_Int_Tables_number   1
_chemical_formula_structural   Li2ICl6
_chemical_formula_sum   'Li2 I1 Cl6'
_cell_volume   240.64420458
_cell_formula_units_Z   1
loop_
 _symmetry_equiv_pos_site_id
 _symmetry_equiv_pos_as_xyz
  1  'x, y, z'
loop_
 _atom_site_type_symbol
 _atom_site_label
 _atom_site_symmetry_multiplicity
 _atom_site_fract_x
 _atom_site_fract_y
 _atom_site_fract_z
 _atom_site_occupancy
  Li  Li0  1  0.70949468  0.85180546  0.27697137  1
  Li  Li1  1  0.29052812  0.14815526  0.72297571  1
  I  I2  1  -0.00002249  -0.00003507  0.49998858  1
  Cl  Cl3  1  0.55335080  0.30423814  0.32329650  1
  Cl  Cl4  1  0.08908893  0.82804456  0.09753477  1
  Cl  Cl5  1  0.30216420  0.56567319  0.19383319  1
  Cl  Cl6  1  0.44667809  -0.30416875  0.67672950  1
  Cl  Cl7  1  -0.08907874  0.17190021  0.90245825  1
  Cl  Cl8  1  0.69779642  0.43438700  0.80621214  1
