# generated using pymatgen
data_NaSBr2
_symmetry_space_group_name_H-M   'P 1'
_cell_length_a   5.91291653
_cell_length_b   7.94581939
_cell_length_c   8.16335407
_cell_angle_alpha   96.48411836
_cell_angle_beta   44.88355857
_cell_angle_gamma   91.56809088
_symmetry_Int_Tables_number   1
_chemical_formula_structural   NaSBr2
_chemical_formula_sum   'Na2 S2 Br4'
_cell_volume   268.16050586
_cell_formula_units_Z   2
loop_
 _symmetry_equiv_pos_site_id
 _symmetry_equiv_pos_as_xyz
  1  'x, y, z'
loop_
 _atom_site_type_symbol
 _atom_site_label
 _atom_site_symmetry_multiplicity
 _atom_site_fract_x
 _atom_site_fract_y
 _atom_site_fract_z
 _atom_site_occupancy
  Na  Na0  1  0.04670474  0.27016566  0.48542986  1
  Na  Na1  1  0.05119497  0.20095687  -0.01713271  1
  S  S2  1  0.12486992  -0.32113701  0.27430046  1
  S  S3  1  -0.15617765  0.63198822  0.23318010  1
  Br  Br4  1  0.55414181  0.23510248  -0.01928606  1
  Br  Br5  1  0.88750478  -0.10469955  0.57969019  1
  Br  Br6  1  -0.04250011  0.79612806  0.96635115  1
  Br  Br7  1  0.53426154  0.29149527  0.49746701  1
