# generated using pymatgen
data_Na5I2O5
_symmetry_space_group_name_H-M   'P 1'
_cell_length_a   8.49466777
_cell_length_b   8.49727871
_cell_length_c   6.24337858
_cell_angle_alpha   89.99864638
_cell_angle_beta   89.99641036
_cell_angle_gamma   90.00561656
_symmetry_Int_Tables_number   1
_chemical_formula_structural   Na5I2O5
_chemical_formula_sum   'Na10 I4 O10'
_cell_volume   450.65679990
_cell_formula_units_Z   2
loop_
 _symmetry_equiv_pos_site_id
 _symmetry_equiv_pos_as_xyz
  1  'x, y, z'
loop_
 _atom_site_type_symbol
 _atom_site_label
 _atom_site_symmetry_multiplicity
 _atom_site_fract_x
 _atom_site_fract_y
 _atom_site_fract_z
 _atom_site_occupancy
  Na  Na0  1  0.00002414  -0.00003492  0.61493139  1
  Na  Na1  1  0.19831749  0.16295659  0.05075268  1
  Na  Na2  1  0.83750609  0.19838305  0.04925832  1
  Na  Na3  1  0.80156522  0.83729095  0.05016044  1
  Na  Na4  1  0.16242556  0.80162818  0.04947239  1
  Na  Na5  1  0.50009058  0.50012143  0.11015390  1
  Na  Na6  1  0.69770556  0.66189139  0.55045104  1
  Na  Na7  1  0.33821852  0.69778796  0.54954954  1
  Na  Na8  1  0.30243973  0.33804249  0.55084488  1
  Na  Na9  1  0.66164586  0.30227012  0.54895735  1
  I  I10  1  0.00009345  0.49981883  0.26374930  1
  I  I11  1  0.49992545  -0.00012395  0.26412995  1
  I  I12  1  0.49986237  0.00015938  0.76385389  1
  I  I13  1  -0.00004016  0.49994281  0.76376325  1
  O  O14  1  -0.00018102  0.00005980  0.18311416  1
  O  O15  1  0.57770237  0.77058485  0.26024486  1
  O  O16  1  0.77071791  0.42216196  0.25912397  1
  O  O17  1  0.42245257  0.22938160  0.26059193  1
  O  O18  1  0.22936325  0.57785357  0.25927263  1
  O  O19  1  0.50018987  0.50003166  0.68663245  1
  O  O20  1  0.07819817  0.27081056  0.76013589  1
  O  O21  1  0.27085191  0.92143167  0.75912574  1
  O  O22  1  0.92191914  0.72916053  0.75985934  1
  O  O23  1  0.72900597  0.07838949  0.75879427  1
