# generated using pymatgen
data_Li5I2N
_symmetry_space_group_name_H-M   'P 1'
_cell_length_a   7.48824405
_cell_length_b   7.48821974
_cell_length_c   7.66702409
_cell_angle_alpha   89.99572019
_cell_angle_beta   90.01263492
_cell_angle_gamma   90.00031996
_symmetry_Int_Tables_number   1
_chemical_formula_structural   Li5I2N
_chemical_formula_sum   'Li10 I4 N2'
_cell_volume   429.91776004
_cell_formula_units_Z   2
loop_
 _symmetry_equiv_pos_site_id
 _symmetry_equiv_pos_as_xyz
  1  'x, y, z'
loop_
 _atom_site_type_symbol
 _atom_site_label
 _atom_site_symmetry_multiplicity
 _atom_site_fract_x
 _atom_site_fract_y
 _atom_site_fract_z
 _atom_site_occupancy
  Li  Li0  1  -0.00002682  -0.00001281  -0.00000510  1
  Li  Li1  1  0.53444409  0.83453242  0.91619562  1
  Li  Li2  1  0.46556927  0.16547652  0.91620565  1
  Li  Li3  1  0.83454950  0.46556738  0.08379683  1
  Li  Li4  1  0.16547306  0.53444460  0.08381312  1
  Li  Li5  1  0.49997998  0.49998718  0.50001954  1
  Li  Li6  1  0.03444361  0.33452623  0.41619158  1
  Li  Li7  1  0.96557114  0.66548100  0.41619978  1
  Li  Li8  1  0.33452932  0.96556594  0.58379156  1
  Li  Li9  1  0.66549678  0.03444912  0.58381052  1
  I  I10  1  -0.00004291  0.49998424  0.74999505  1
  I  I11  1  0.49995935  -0.00001292  0.25000138  1
  I  I12  1  -0.00000789  -0.00000371  0.50000720  1
  I  I13  1  0.49999043  0.49999731  -0.00001199  1
  N  N14  1  0.00003468  0.50000811  0.24997312  1
  N  N15  1  0.50003641  0.00000939  0.75001613  1
