# generated using pymatgen
data_Li6SiBr5
_symmetry_space_group_name_H-M   'P 1'
_cell_length_a   7.83958892
_cell_length_b   7.83956049
_cell_length_c   12.80972556
_cell_angle_alpha   89.99782329
_cell_angle_beta   89.99824942
_cell_angle_gamma   90.00036559
_symmetry_Int_Tables_number   1
_chemical_formula_structural   Li6SiBr5
_chemical_formula_sum   'Li12 Si2 Br10'
_cell_volume   787.27204549
_cell_formula_units_Z   2
loop_
 _symmetry_equiv_pos_site_id
 _symmetry_equiv_pos_as_xyz
  1  'x, y, z'
loop_
 _atom_site_type_symbol
 _atom_site_label
 _atom_site_symmetry_multiplicity
 _atom_site_fract_x
 _atom_site_fract_y
 _atom_site_fract_z
 _atom_site_occupancy
  Li  Li0  1  0.00000005  0.50000039  0.50000138  1
  Li  Li1  1  0.50014805  0.28993159  0.38889438  1
  Li  Li2  1  0.50012100  0.70997299  0.61107169  1
  Li  Li3  1  0.49987059  0.71004875  0.38892150  1
  Li  Li4  1  0.49986084  0.29004673  0.61104274  1
  Li  Li5  1  0.49999987  0.00000022  0.50001736  1
  Li  Li6  1  0.29003821  0.49988070  0.88893661  1
  Li  Li7  1  0.71006991  0.49985203  0.11110112  1
  Li  Li8  1  0.70995199  0.50014117  0.88895304  1
  Li  Li9  1  0.28993544  0.50012766  0.11108573  1
  Li  Li10  1  0.00000010  0.50000015  -0.00002244  1
  Li  Li11  1  0.49999919  0.00000011  -0.00000044  1
  Si  Si12  1  0.50002219  0.49997083  0.74999955  1
  Si  Si13  1  0.49997843  0.50002845  0.24999873  1
  Br  Br14  1  -0.00000572  0.00000665  0.24999984  1
  Br  Br15  1  0.00000813  -0.00000835  0.74999954  1
  Br  Br16  1  0.25832197  0.23581339  0.49987301  1
  Br  Br17  1  0.74167829  0.76418604  0.49989250  1
  Br  Br18  1  0.74168807  0.23581833  0.50007862  1
  Br  Br19  1  0.25831206  0.76418090  0.50009133  1
  Br  Br20  1  0.23581401  0.25832111  0.00011018  1
  Br  Br21  1  0.76418661  0.74168024  0.00012357  1
  Br  Br22  1  0.76418284  0.25831192  -0.00008227  1
  Br  Br23  1  0.23581786  0.74168801  -0.00008727  1
