# generated using pymatgen
data_Li4I3N
_symmetry_space_group_name_H-M   'P 1'
_cell_length_a   7.45243684
_cell_length_b   7.92431619
_cell_length_c   7.53375897
_cell_angle_alpha   75.62034212
_cell_angle_beta   66.63298032
_cell_angle_gamma   103.24152078
_symmetry_Int_Tables_number   1
_chemical_formula_structural   Li4I3N
_chemical_formula_sum   'Li8 I6 N2'
_cell_volume   367.80516911
_cell_formula_units_Z   2
loop_
 _symmetry_equiv_pos_site_id
 _symmetry_equiv_pos_as_xyz
  1  'x, y, z'
loop_
 _atom_site_type_symbol
 _atom_site_label
 _atom_site_symmetry_multiplicity
 _atom_site_fract_x
 _atom_site_fract_y
 _atom_site_fract_z
 _atom_site_occupancy
  Li  Li0  1  0.43762410  0.30381877  0.31987733  1
  Li  Li1  1  0.93788522  0.80430674  0.81968831  1
  Li  Li2  1  0.43001578  0.54921522  0.74459438  1
  Li  Li3  1  0.65019140  0.71101190  0.30547284  1
  Li  Li4  1  0.17104730  0.78185357  0.03623316  1
  Li  Li5  1  0.93040394  0.04924871  0.24430354  1
  Li  Li6  1  0.67120298  0.28180998  0.53608970  1
  Li  Li7  1  0.15024384  0.21165015  0.80553615  1
  I  I8  1  0.49263309  0.65684661  0.05458454  1
  I  I9  1  -0.04810377  0.42332100  0.02066690  1
  I  I10  1  -0.09570145  0.65774135  0.48006904  1
  I  I11  1  -0.00734429  0.15718437  0.55464673  1
  I  I12  1  0.40453365  0.15763599  -0.02011186  1
  I  I13  1  0.45189828  -0.07676467  0.52036729  1
  N  N14  1  0.46156427  0.41538926  0.53927662  1
  N  N15  1  -0.03809434  -0.08426894  0.03870534  1
