# generated using pymatgen
data_Na2BeBr4
_symmetry_space_group_name_H-M   'P 1'
_cell_length_a   7.21815714
_cell_length_b   5.10499230
_cell_length_c   7.25746610
_cell_angle_alpha   87.08024236
_cell_angle_beta   64.50457940
_cell_angle_gamma   91.36371384
_symmetry_Int_Tables_number   1
_chemical_formula_structural   Na2BeBr4
_chemical_formula_sum   'Na2 Be1 Br4'
_cell_volume   240.76185952
_cell_formula_units_Z   1
loop_
 _symmetry_equiv_pos_site_id
 _symmetry_equiv_pos_as_xyz
  1  'x, y, z'
loop_
 _atom_site_type_symbol
 _atom_site_label
 _atom_site_symmetry_multiplicity
 _atom_site_fract_x
 _atom_site_fract_y
 _atom_site_fract_z
 _atom_site_occupancy
  Na  Na0  1  -0.02929371  0.36481314  0.59451901  1
  Na  Na1  1  0.44768136  -0.10228074  0.49864543  1
  Be  Be2  1  0.32073481  0.36009571  0.05216626  1
  Br  Br3  1  0.47183553  0.41502527  0.23856806  1
  Br  Br4  1  0.00772657  0.29571554  0.17645858  1
  Br  Br5  1  0.02535205  -0.14205864  0.70667768  1
  Br  Br6  1  0.50596340  0.37118971  0.73296498  1
