# generated using pymatgen
data_Li3I3O2
_symmetry_space_group_name_H-M   'P 1'
_cell_length_a   10.18714719
_cell_length_b   10.18767543
_cell_length_c   8.46217139
_cell_angle_alpha   95.54255307
_cell_angle_beta   84.44790945
_cell_angle_gamma   88.56378345
_symmetry_Int_Tables_number   1
_chemical_formula_structural   Li3I3O2
_chemical_formula_sum   'Li12 I12 O8'
_cell_volume   869.50072855
_cell_formula_units_Z   4
loop_
 _symmetry_equiv_pos_site_id
 _symmetry_equiv_pos_as_xyz
  1  'x, y, z'
loop_
 _atom_site_type_symbol
 _atom_site_label
 _atom_site_symmetry_multiplicity
 _atom_site_fract_x
 _atom_site_fract_y
 _atom_site_fract_z
 _atom_site_occupancy
  Li  Li0  1  0.04727638  0.04372090  -0.01857802  1
  Li  Li1  1  0.45652766  0.45254571  0.48191116  1
  Li  Li2  1  0.52351344  0.18713401  0.24053566  1
  Li  Li3  1  0.47822680  0.81427169  0.25782418  1
  Li  Li4  1  -0.04771017  -0.04391726  0.51899950  1
  Li  Li5  1  0.81924280  0.51980141  0.80760549  1
  Li  Li6  1  0.18067488  0.47987059  0.69326558  1
  Li  Li7  1  0.68552005  0.02108441  0.75763681  1
  Li  Li8  1  0.31299293  -0.02303934  0.74066206  1
  Li  Li9  1  0.54371823  0.54808585  0.01845003  1
  Li  Li10  1  0.02085048  0.31904147  0.19351342  1
  Li  Li11  1  -0.02058044  0.68105914  0.30716281  1
  I  I12  1  0.47724052  -0.02163851  -0.00030706  1
  I  I13  1  0.19624868  -0.10294288  0.22852787  1
  I  I14  1  0.80362790  0.10302346  0.27169866  1
  I  I15  1  0.03921699  0.53870416  0.00034065  1
  I  I16  1  -0.08969476  0.80312338  0.83370173  1
  I  I17  1  0.08922218  0.19608092  0.66619645  1
  I  I18  1  0.52171074  0.02262063  0.49954821  1
  I  I19  1  0.39691738  0.69658365  0.77176901  1
  I  I20  1  0.60298967  0.30360225  0.72846015  1
  I  I21  1  -0.03884369  0.46109392  0.50029011  1
  I  I22  1  0.30412928  0.41087711  0.16650363  1
  I  I23  1  0.69659568  0.58982483  0.33357100  1
  O  O24  1  0.95294401  0.16214803  0.13252222  1
  O  O25  1  0.04731601  0.83790024  0.36831276  1
  O  O26  1  0.84111489  0.93342235  0.70101744  1
  O  O27  1  0.15783193  0.06510772  0.79847883  1
  O  O28  1  0.66198609  0.45249212  0.86837477  1
  O  O29  1  0.33789133  0.54736021  0.63243693  1
  O  O30  1  0.43494345  0.34199920  0.29875548  1
  O  O31  1  0.56635868  0.65895863  0.20081248  1
