# generated using pymatgen
data_NaBrO2
_symmetry_space_group_name_H-M   'P 1'
_cell_length_a   4.56909007
_cell_length_b   4.46806898
_cell_length_c   6.77141089
_cell_angle_alpha   102.46765184
_cell_angle_beta   110.91560312
_cell_angle_gamma   89.69929312
_symmetry_Int_Tables_number   1
_chemical_formula_structural   NaBrO2
_chemical_formula_sum   'Na2 Br2 O4'
_cell_volume   125.69286449
_cell_formula_units_Z   2
loop_
 _symmetry_equiv_pos_site_id
 _symmetry_equiv_pos_as_xyz
  1  'x, y, z'
loop_
 _atom_site_type_symbol
 _atom_site_label
 _atom_site_symmetry_multiplicity
 _atom_site_fract_x
 _atom_site_fract_y
 _atom_site_fract_z
 _atom_site_occupancy
  Na  Na0  1  -0.05589637  0.04875266  -0.00618411  1
  Na  Na1  1  -0.05538426  0.04817034  0.49378091  1
  Br  Br2  1  0.45964495  0.54028711  0.53392258  1
  Br  Br3  1  0.45935646  0.53993954  0.03388401  1
  O  O4  1  0.06754651  0.46649962  0.35260792  1
  O  O5  1  0.52850877  -0.05507888  0.61960896  1
  O  O6  1  0.52898358  -0.05561118  0.11981198  1
  O  O7  1  0.06724035  0.46704078  0.85256776  1
