# generated using pymatgen
data_LiBI2
_symmetry_space_group_name_H-M   'P 1'
_cell_length_a   8.35840714
_cell_length_b   7.57761346
_cell_length_c   4.73807594
_cell_angle_alpha   89.99848064
_cell_angle_beta   56.23944617
_cell_angle_gamma   89.99910847
_symmetry_Int_Tables_number   1
_chemical_formula_structural   LiBI2
_chemical_formula_sum   'Li2 B2 I4'
_cell_volume   249.48871476
_cell_formula_units_Z   2
loop_
 _symmetry_equiv_pos_site_id
 _symmetry_equiv_pos_as_xyz
  1  'x, y, z'
loop_
 _atom_site_type_symbol
 _atom_site_label
 _atom_site_symmetry_multiplicity
 _atom_site_fract_x
 _atom_site_fract_y
 _atom_site_fract_z
 _atom_site_occupancy
  Li  Li0  1  0.23408187  0.00000123  -0.13129319  1
  Li  Li1  1  0.73410785  0.50000131  -0.13132290  1
  B  B2  1  0.40129586  0.50000144  0.19923912  1
  B  B3  1  0.90137917  0.00000151  0.19913673  1
  I  I4  1  0.69758227  0.23580795  0.40294513  1
  I  I5  1  0.69758517  0.76418936  0.40290766  1
  I  I6  1  0.19762936  0.73576553  0.40289052  1
  I  I7  1  0.19763242  0.26423166  0.40285293  1
