# generated using pymatgen
data_Li2SiP6
_symmetry_space_group_name_H-M   'P 1'
_cell_length_a   7.47402725
_cell_length_b   7.47399879
_cell_length_c   5.80561378
_cell_angle_alpha   89.99993141
_cell_angle_beta   89.99992975
_cell_angle_gamma   90.01001367
_symmetry_Int_Tables_number   1
_chemical_formula_structural   Li2SiP6
_chemical_formula_sum   'Li4 Si2 P12'
_cell_volume   324.30663541
_cell_formula_units_Z   2
loop_
 _symmetry_equiv_pos_site_id
 _symmetry_equiv_pos_as_xyz
  1  'x, y, z'
loop_
 _atom_site_type_symbol
 _atom_site_label
 _atom_site_symmetry_multiplicity
 _atom_site_fract_x
 _atom_site_fract_y
 _atom_site_fract_z
 _atom_site_occupancy
  Li  Li0  1  0.49999996  0.49999989  0.19298275  1
  Li  Li1  1  0.50000001  0.00000014  0.13345131  1
  Li  Li2  1  0.49999989  0.49999995  0.69298241  1
  Li  Li3  1  0.00000015  0.50000001  0.63345088  1
  Si  Si4  1  -0.00000182  -0.00000053  0.30855728  1
  Si  Si5  1  -0.00000054  -0.00000179  0.80854503  1
  P  P6  1  0.64712650  0.19778983  0.46941939  1
  P  P7  1  0.35286161  0.19775544  0.46939098  1
  P  P8  1  0.64713897  0.80224501  0.46939228  1
  P  P9  1  0.35287455  0.80221082  0.46941836  1
  P  P10  1  0.68326508  0.00001314  0.74785860  1
  P  P11  1  0.31673434  -0.00001297  0.74785714  1
  P  P12  1  0.19775557  0.35286118  0.96939126  1
  P  P13  1  0.19778995  0.64712693  0.96941966  1
  P  P14  1  0.80224489  0.64713941  0.96939255  1
  P  P15  1  0.80221070  0.35287410  0.96941865  1
  P  P16  1  0.00001316  0.68326710  0.24785763  1
  P  P17  1  -0.00001297  0.31673233  0.24785616  1
