# generated using pymatgen
data_K2IN7
_symmetry_space_group_name_H-M   'P 1'
_cell_length_a   10.39896730
_cell_length_b   9.86260250
_cell_length_c   10.25649944
_cell_angle_alpha   91.10908247
_cell_angle_beta   89.87071639
_cell_angle_gamma   89.45859259
_symmetry_Int_Tables_number   1
_chemical_formula_structural   K2IN7
_chemical_formula_sum   'K8 I4 N28'
_cell_volume   1051.66846398
_cell_formula_units_Z   4
loop_
 _symmetry_equiv_pos_site_id
 _symmetry_equiv_pos_as_xyz
  1  'x, y, z'
loop_
 _atom_site_type_symbol
 _atom_site_label
 _atom_site_symmetry_multiplicity
 _atom_site_fract_x
 _atom_site_fract_y
 _atom_site_fract_z
 _atom_site_occupancy
  K  K0  1  0.49572929  0.61677163  0.29420409  1
  K  K1  1  0.31214181  0.31890028  0.41246023  1
  K  K2  1  -0.01410563  0.38135581  -0.03184978  1
  K  K3  1  0.78711688  0.92658926  0.22345570  1
  K  K4  1  0.49934203  0.11390336  0.05046424  1
  K  K5  1  0.81266824  0.16979952  0.59122761  1
  K  K6  1  -0.01650146  -0.14387884  0.71821866  1
  K  K7  1  0.27826938  0.57154586  0.78338144  1
  I  I8  1  0.80658243  0.08113841  0.91931286  1
  I  I9  1  0.11536082  0.27158841  0.66908786  1
  I  I10  1  0.30165549  0.40834244  0.08451191  1
  I  I11  1  0.63025422  0.24969992  0.33166939  1
  N  N12  1  0.38037741  0.56406984  0.53417856  1
  N  N13  1  0.89704532  -0.06431804  0.46981749  1
  N  N14  1  0.03067780  0.63262788  0.86587886  1
  N  N15  1  0.54640322  0.85794646  0.16186160  1
  N  N16  1  0.03126409  0.75869652  0.13750800  1
  N  N17  1  0.15732750  0.00174952  0.91569684  1
  N  N18  1  0.64176045  -0.10508676  0.57231104  1
  N  N19  1  0.00015661  0.21448521  0.21920261  1
  N  N20  1  0.51247499  0.73507631  -0.11696522  1
  N  N21  1  -0.18451783  0.59468289  0.67296932  1
  N  N22  1  0.52342026  0.32683592  0.70987180  1
  N  N23  1  -0.10916851  0.52579733  0.28497345  1
  N  N24  1  0.11888177  0.68784215  0.50763707  1
  N  N25  1  0.30512078  -0.11524155  0.67799311  1
  N  N26  1  0.22781094  0.03497620  -0.00855950  1
  N  N27  1  0.79462346  0.48564025  0.65248265  1
  N  N28  1  0.32942396  0.89347018  0.33330383  1
  N  N29  1  0.50074259  0.25565269  -0.21017138  1
  N  N30  1  0.14193846  0.61447292  0.42619135  1
  N  N31  1  0.65140843  0.51394240  0.05965307  1
  N  N32  1  0.51097939  0.84762674  0.89935371  1
  N  N33  1  0.13670115  0.75826215  0.11655691  1
  N  N34  1  0.81730575  0.59583857  0.32916650  1
  N  N35  1  0.31802330  0.00581230  0.32771898  1
  N  N36  1  0.35022203  -0.02271645  0.63765180  1
  N  N37  1  0.70886682  0.47940034  -0.02708859  1
  N  N38  1  0.03875393  0.14841918  0.29759242  1
  N  N39  1  0.61346242  0.80828278  0.50706955  1
