# generated using pymatgen
data_KBrCl2
_symmetry_space_group_name_H-M   'P 1'
_cell_length_a   7.41990967
_cell_length_b   7.41990980
_cell_length_c   7.95682445
_cell_angle_alpha   90.00000741
_cell_angle_beta   90.00000440
_cell_angle_gamma   90.00000765
_symmetry_Int_Tables_number   1
_chemical_formula_structural   KBrCl2
_chemical_formula_sum   'K4 Br4 Cl8'
_cell_volume   438.06345057
_cell_formula_units_Z   4
loop_
 _symmetry_equiv_pos_site_id
 _symmetry_equiv_pos_as_xyz
  1  'x, y, z'
loop_
 _atom_site_type_symbol
 _atom_site_label
 _atom_site_symmetry_multiplicity
 _atom_site_fract_x
 _atom_site_fract_y
 _atom_site_fract_z
 _atom_site_occupancy
  K  K0  1  0.50000029  0.50000000  0.50000048  1
  K  K1  1  0.50000033  0.50000000  -0.00000046  1
  K  K2  1  -0.00000033  -0.00000001  -0.00000050  1
  K  K3  1  -0.00000030  -0.00000001  0.50000047  1
  Br  Br4  1  0.00000091  0.49999999  0.00000064  1
  Br  Br5  1  0.49999909  0.00000001  0.49999936  1
  Br  Br6  1  0.49999908  0.00000001  0.00000064  1
  Br  Br7  1  0.00000091  0.50000000  0.49999936  1
  Cl  Cl8  1  0.75000004  0.25000004  0.25000012  1
  Cl  Cl9  1  0.24999997  0.74999997  0.74999988  1
  Cl  Cl10  1  0.24999997  0.74999997  0.25000011  1
  Cl  Cl11  1  0.75000004  0.25000004  0.74999988  1
  Cl  Cl12  1  0.24999996  0.25000004  0.25000011  1
  Cl  Cl13  1  0.24999997  0.25000003  0.74999989  1
  Cl  Cl14  1  0.75000004  0.74999996  0.74999989  1
  Cl  Cl15  1  0.75000004  0.74999996  0.25000012  1
