# generated using pymatgen
data_Li3SI
_symmetry_space_group_name_H-M   'P 1'
_cell_length_a   5.18631134
_cell_length_b   5.18631136
_cell_length_c   8.89973895
_cell_angle_alpha   90.00000618
_cell_angle_beta   90.00000663
_cell_angle_gamma   89.99999978
_symmetry_Int_Tables_number   1
_chemical_formula_structural   Li3SI
_chemical_formula_sum   'Li6 S2 I2'
_cell_volume   239.38362480
_cell_formula_units_Z   2
loop_
 _symmetry_equiv_pos_site_id
 _symmetry_equiv_pos_as_xyz
  1  'x, y, z'
loop_
 _atom_site_type_symbol
 _atom_site_label
 _atom_site_symmetry_multiplicity
 _atom_site_fract_x
 _atom_site_fract_y
 _atom_site_fract_z
 _atom_site_occupancy
  Li  Li0  1  -0.00000000  0.50000000  0.87886747  1
  Li  Li1  1  0.49999999  -0.00000000  0.12112936  1
  Li  Li2  1  -0.00000001  0.49999999  0.12113264  1
  Li  Li3  1  0.50000002  -0.00000000  0.87887071  1
  Li  Li4  1  0.50000000  0.00000000  0.49999996  1
  Li  Li5  1  0.00000000  0.50000000  0.49999997  1
  S  S6  1  0.00000001  -0.00000000  -0.00000003  1
  S  S7  1  0.50000000  0.49999999  -0.00000004  1
  I  I8  1  0.50000000  0.50000000  0.49999998  1
  I  I9  1  -0.00000000  0.00000000  0.49999997  1
