# generated using pymatgen
data_Li2B3P8
_symmetry_space_group_name_H-M   'P 1'
_cell_length_a   6.82536777
_cell_length_b   6.82537168
_cell_length_c   9.03972088
_cell_angle_alpha   89.99662905
_cell_angle_beta   89.99874481
_cell_angle_gamma   89.99995830
_symmetry_Int_Tables_number   1
_chemical_formula_structural   Li2B3P8
_chemical_formula_sum   'Li4 B6 P16'
_cell_volume   421.12146982
_cell_formula_units_Z   2
loop_
 _symmetry_equiv_pos_site_id
 _symmetry_equiv_pos_as_xyz
  1  'x, y, z'
loop_
 _atom_site_type_symbol
 _atom_site_label
 _atom_site_symmetry_multiplicity
 _atom_site_fract_x
 _atom_site_fract_y
 _atom_site_fract_z
 _atom_site_occupancy
  Li  Li0  1  0.26075069  0.73924385  0.50000139  1
  Li  Li1  1  0.73923271  0.26076162  0.49999754  1
  Li  Li2  1  0.76074972  0.76074697  -0.00000531  1
  Li  Li3  1  0.23923128  0.23922865  0.00000569  1
  B  B4  1  0.50001897  0.50002504  0.49999952  1
  B  B5  1  0.00001116  -0.00002291  -0.00000350  1
  B  B6  1  0.49992824  -0.00000334  0.41141932  1
  B  B7  1  -0.00001568  0.50001757  0.58858067  1
  B  B8  1  -0.00007325  0.49998203  0.08858027  1
  B  B9  1  0.49996211  -0.00001553  0.91141901  1
  P  P10  1  0.50004352  0.50000885  0.30133585  1
  P  P11  1  0.49999683  0.49996922  0.69866363  1
  P  P12  1  0.00007330  -0.00002824  0.19866686  1
  P  P13  1  0.00000558  0.00002287  0.80133905  1
  P  P14  1  0.50032740  0.00031986  0.11681949  1
  P  P15  1  0.34255133  0.16738148  0.28718594  1
  P  P16  1  0.65728884  0.83258106  0.28722655  1
  P  P17  1  0.00003187  0.50004751  0.88317994  1
  P  P18  1  0.83256291  0.65736378  0.71279791  1
  P  P19  1  0.16736477  0.34262581  0.71278953  1
  P  P20  1  0.00015862  0.49983824  0.38318043  1
  P  P21  1  0.84256444  0.33258266  0.21282105  1
  P  P22  1  0.15730211  0.66738288  0.21276616  1
  P  P23  1  0.50003133  -0.00006040  0.61682015  1
  P  P24  1  0.66735117  0.15736936  0.78720563  1
  P  P25  1  0.33255005  0.84263113  0.78720725  1
