# generated using pymatgen
data_NaIBr2
_symmetry_space_group_name_H-M   'P 1'
_cell_length_a   8.00627054
_cell_length_b   8.00627018
_cell_length_c   8.00627040
_cell_angle_alpha   90.00003319
_cell_angle_beta   89.99998920
_cell_angle_gamma   90.00004845
_symmetry_Int_Tables_number   1
_chemical_formula_structural   NaIBr2
_chemical_formula_sum   'Na4 I4 Br8'
_cell_volume   513.20485553
_cell_formula_units_Z   4
loop_
 _symmetry_equiv_pos_site_id
 _symmetry_equiv_pos_as_xyz
  1  'x, y, z'
loop_
 _atom_site_type_symbol
 _atom_site_label
 _atom_site_symmetry_multiplicity
 _atom_site_fract_x
 _atom_site_fract_y
 _atom_site_fract_z
 _atom_site_occupancy
  Na  Na0  1  0.25000003  0.75000002  0.74999984  1
  Na  Na1  1  0.25000004  0.25000001  0.25000019  1
  Na  Na2  1  0.74999999  0.75000002  0.25000018  1
  Na  Na3  1  0.74999997  0.25000001  0.74999982  1
  I  I4  1  0.49999990  -0.00000036  0.00000018  1
  I  I5  1  0.00000014  0.50000043  0.00000020  1
  I  I6  1  0.00000016  -0.00000036  0.49999986  1
  I  I7  1  0.49999986  0.50000040  0.49999984  1
  Br  Br8  1  0.25000028  0.24999991  0.74999975  1
  Br  Br9  1  0.25000027  0.75000014  0.25000015  1
  Br  Br10  1  0.74999971  0.75000015  0.74999977  1
  Br  Br11  1  0.74999970  0.24999990  0.25000021  1
  Br  Br12  1  0.00000009  0.50000025  0.49999987  1
  Br  Br13  1  0.00000013  -0.00000024  0.00000015  1
  Br  Br14  1  0.49999988  0.50000018  0.00000015  1
  Br  Br15  1  0.49999986  -0.00000044  0.49999985  1
