# generated using pymatgen
data_LiBrO
_symmetry_space_group_name_H-M   'P 1'
_cell_length_a   3.58013508
_cell_length_b   4.61298942
_cell_length_c   6.31275619
_cell_angle_alpha   67.81434842
_cell_angle_beta   89.72739019
_cell_angle_gamma   89.19322602
_symmetry_Int_Tables_number   1
_chemical_formula_structural   LiBrO
_chemical_formula_sum   'Li2 Br2 O2'
_cell_volume   96.52779981
_cell_formula_units_Z   2
loop_
 _symmetry_equiv_pos_site_id
 _symmetry_equiv_pos_as_xyz
  1  'x, y, z'
loop_
 _atom_site_type_symbol
 _atom_site_label
 _atom_site_symmetry_multiplicity
 _atom_site_fract_x
 _atom_site_fract_y
 _atom_site_fract_z
 _atom_site_occupancy
  Li  Li0  1  0.50035242  0.58541777  -0.02197773  1
  Li  Li1  1  0.00037075  0.08132479  0.47652159  1
  Br  Br2  1  0.50482215  0.54979766  0.49551887  1
  Br  Br3  1  0.00472888  0.05349842  -0.00535589  1
  O  O4  1  0.49479839  0.30174938  0.32087614  1
  O  O5  1  -0.00507259  -0.19678803  0.82167386  1
