# generated using pymatgen
data_LiIN3
_symmetry_space_group_name_H-M   'P 1'
_cell_length_a   4.71814517
_cell_length_b   4.71812660
_cell_length_c   7.81703088
_cell_angle_alpha   89.99950371
_cell_angle_beta   89.99958556
_cell_angle_gamma   89.99999847
_symmetry_Int_Tables_number   1
_chemical_formula_structural   LiIN3
_chemical_formula_sum   'Li2 I2 N6'
_cell_volume   174.01340994
_cell_formula_units_Z   2
loop_
 _symmetry_equiv_pos_site_id
 _symmetry_equiv_pos_as_xyz
  1  'x, y, z'
loop_
 _atom_site_type_symbol
 _atom_site_label
 _atom_site_symmetry_multiplicity
 _atom_site_fract_x
 _atom_site_fract_y
 _atom_site_fract_z
 _atom_site_occupancy
  Li  Li0  1  0.49999999  0.00000006  0.74999486  1
  Li  Li1  1  0.00000002  0.49999999  0.24999376  1
  I  I2  1  -0.00000331  0.00000392  0.00000100  1
  I  I3  1  0.49999683  0.50000346  0.50000432  1
  N  N4  1  0.00000367  0.49999580  0.75000435  1
  N  N5  1  0.50000032  0.50000082  0.92822211  1
  N  N6  1  -0.00000062  -0.00000036  0.57178494  1
  N  N7  1  0.50000346  -0.00000412  0.24999182  1
  N  N8  1  0.00000031  0.00000071  0.42822038  1
  N  N9  1  0.49999935  0.49999974  0.07178245  1
