# generated using pymatgen
data_Na3NCl2
_symmetry_space_group_name_H-M   'P 1'
_cell_length_a   9.99880128
_cell_length_b   9.99904949
_cell_length_c   7.42609203
_cell_angle_alpha   89.99966276
_cell_angle_beta   89.99966214
_cell_angle_gamma   89.99837010
_symmetry_Int_Tables_number   1
_chemical_formula_structural   Na3NCl2
_chemical_formula_sum   'Na12 N4 Cl8'
_cell_volume   742.44960706
_cell_formula_units_Z   4
loop_
 _symmetry_equiv_pos_site_id
 _symmetry_equiv_pos_as_xyz
  1  'x, y, z'
loop_
 _atom_site_type_symbol
 _atom_site_label
 _atom_site_symmetry_multiplicity
 _atom_site_fract_x
 _atom_site_fract_y
 _atom_site_fract_z
 _atom_site_occupancy
  Na  Na0  1  0.82756904  0.14718444  0.49999440  1
  Na  Na1  1  0.35281595  0.67243098  0.00000560  1
  Na  Na2  1  0.17243097  0.85281556  0.50000561  1
  Na  Na3  1  0.64718406  0.32756903  -0.00000560  1
  Na  Na4  1  0.00000000  0.50000000  -0.00000000  1
  Na  Na5  1  0.00000001  0.49999999  0.50000000  1
  Na  Na6  1  0.85280237  0.82757868  -0.00000337  1
  Na  Na7  1  0.32758214  0.35279494  0.49999661  1
  Na  Na8  1  0.67241786  0.64720504  0.50000339  1
  Na  Na9  1  0.14719762  0.17242132  0.00000336  1
  Na  Na10  1  0.49999999  -0.00000000  0.00000001  1
  Na  Na11  1  0.49999999  0.00000001  0.49999999  1
  N  N12  1  -0.00000001  0.00000001  -0.00000001  1
  N  N13  1  0.00000001  0.00000001  0.49999999  1
  N  N14  1  0.49999998  0.50000000  0.49999999  1
  N  N15  1  0.50000001  0.50000001  0.00000000  1
  Cl  Cl16  1  0.86561950  0.63438822  0.74999840  1
  Cl  Cl17  1  0.13438050  0.36561175  0.25000159  1
  Cl  Cl18  1  0.86561967  0.63438804  0.25000158  1
  Cl  Cl19  1  0.13438035  0.36561196  0.74999843  1
  Cl  Cl20  1  0.36562630  0.86561816  0.75000119  1
  Cl  Cl21  1  0.63437369  0.13438185  0.24999881  1
  Cl  Cl22  1  0.63437758  0.13437795  0.74999918  1
  Cl  Cl23  1  0.36562242  0.86562204  0.25000083  1
