# generated using pymatgen
data_Li4BrO4
_symmetry_space_group_name_H-M   'P 1'
_cell_length_a   6.08445425
_cell_length_b   6.09240649
_cell_length_c   11.72713174
_cell_angle_alpha   89.97568391
_cell_angle_beta   90.01521580
_cell_angle_gamma   89.99802091
_symmetry_Int_Tables_number   1
_chemical_formula_structural   Li4BrO4
_chemical_formula_sum   'Li16 Br4 O16'
_cell_volume   434.71262295
_cell_formula_units_Z   4
loop_
 _symmetry_equiv_pos_site_id
 _symmetry_equiv_pos_as_xyz
  1  'x, y, z'
loop_
 _atom_site_type_symbol
 _atom_site_label
 _atom_site_symmetry_multiplicity
 _atom_site_fract_x
 _atom_site_fract_y
 _atom_site_fract_z
 _atom_site_occupancy
  Li  Li0  1  0.00003753  -0.00006897  0.12184623  1
  Li  Li1  1  0.66307765  0.24982130  0.12495032  1
  Li  Li2  1  -0.00007920  0.50010536  0.12817473  1
  Li  Li3  1  0.33710414  0.74988395  0.12502135  1
  Li  Li4  1  -0.00005070  0.00003804  0.87814719  1
  Li  Li5  1  0.74987026  0.33693471  0.87494620  1
  Li  Li6  1  0.50002679  -0.00006534  0.87183408  1
  Li  Li7  1  0.24968387  0.66312872  0.87512312  1
  Li  Li8  1  0.49986186  0.50012781  0.37814666  1
  Li  Li9  1  0.24989100  0.83726147  0.37497860  1
  Li  Li10  1  0.00026876  0.49987194  0.37181405  1
  Li  Li11  1  0.74952531  0.16345903  0.37515566  1
  Li  Li12  1  0.49998974  0.49974874  0.62184558  1
  Li  Li13  1  0.16334978  0.75001559  0.62499494  1
  Li  Li14  1  0.49999135  0.00023676  0.62816631  1
  Li  Li15  1  0.83739785  0.24994703  0.62502099  1
  Br  Br16  1  0.50012688  -0.00011567  0.24996258  1
  Br  Br17  1  -0.00022058  -0.00014828  0.49999883  1
  Br  Br18  1  0.50002524  0.49998800  0.00001475  1
  Br  Br19  1  -0.00005309  0.50014690  0.74996160  1
  O  O20  1  0.56143153  0.77163133  0.75436416  1
  O  O21  1  0.72858433  0.93841107  0.74563500  1
  O  O22  1  0.22867492  0.43827476  0.24558665  1
  O  O23  1  0.06152516  0.27149605  0.25433835  1
  O  O24  1  0.77152089  0.56171243  0.24568601  1
  O  O25  1  0.93870932  0.72848159  0.25439332  1
  O  O26  1  0.27142829  0.06183431  0.74563307  1
  O  O27  1  0.43860534  0.22861201  0.75438671  1
  O  O28  1  0.77145330  0.93824427  0.00435046  1
  O  O29  1  0.27138020  0.43807806  0.50433533  1
  O  O30  1  0.56122467  0.72838315  0.49565120  1
  O  O31  1  0.06138843  0.22845007  -0.00440362  1
  O  O32  1  0.93863078  0.77145238  -0.00437963  1
  O  O33  1  0.22857244  0.06165246  0.00435725  1
  O  O34  1  0.43863333  0.27131062  0.49558100  1
  O  O35  1  0.72841261  0.56165836  0.50438096  1
