# generated using pymatgen
data_Na5CN
_symmetry_space_group_name_H-M   'P 1'
_cell_length_a   10.24146507
_cell_length_b   5.14843265
_cell_length_c   12.08082775
_cell_angle_alpha   88.39764754
_cell_angle_beta   89.69507254
_cell_angle_gamma   90.33455026
_symmetry_Int_Tables_number   1
_chemical_formula_structural   Na5CN
_chemical_formula_sum   'Na20 C4 N4'
_cell_volume   636.72223681
_cell_formula_units_Z   4
loop_
 _symmetry_equiv_pos_site_id
 _symmetry_equiv_pos_as_xyz
  1  'x, y, z'
loop_
 _atom_site_type_symbol
 _atom_site_label
 _atom_site_symmetry_multiplicity
 _atom_site_fract_x
 _atom_site_fract_y
 _atom_site_fract_z
 _atom_site_occupancy
  Na  Na0  1  0.37013456  0.20842321  0.53527106  1
  Na  Na1  1  0.62966519  -0.20824881  0.46464172  1
  Na  Na2  1  0.59612338  0.30779513  0.26889215  1
  Na  Na3  1  0.63826325  0.28313056  0.65665702  1
  Na  Na4  1  0.36157344  0.71700796  0.34297911  1
  Na  Na5  1  0.40359004  0.69237681  0.73136758  1
  Na  Na6  1  0.42023197  0.15444157  0.89074205  1
  Na  Na7  1  0.58097925  -0.15387647  0.10910137  1
  Na  Na8  1  0.30839305  0.14784878  0.11913641  1
  Na  Na9  1  0.69202950  -0.14982271  0.88031208  1
  Na  Na10  1  0.13656845  0.70650283  0.53717531  1
  Na  Na11  1  0.86363068  0.29367912  0.46280516  1
  Na  Na12  1  0.13662806  0.21856747  0.35009891  1
  Na  Na13  1  0.09382836  0.19372014  0.73016836  1
  Na  Na14  1  0.86350485  0.78168619  0.64951196  1
  Na  Na15  1  0.90668715  0.80646515  0.27024109  1
  Na  Na16  1  0.19146405  0.64480849  0.11144431  1
  Na  Na17  1  0.80813640  0.35311741  0.88793526  1
  Na  Na18  1  0.07588820  0.65843173  0.88748374  1
  Na  Na19  1  0.92270827  0.34237909  0.11241564  1
  C  C20  1  0.52426109  0.37450341  0.06198390  1
  C  C21  1  0.47601993  0.62580710  0.93832457  1
  C  C22  1  -0.02394680  -0.12727692  0.06190980  1
  C  C23  1  0.02367311  0.12770255  0.93851321  1
  N  N24  1  0.40648485  0.51862633  0.03288383  1
  N  N25  1  0.59382673  0.48165411  -0.03252719  1
  N  N26  1  0.90574112  -0.01909755  -0.03103635  1
  N  N27  1  0.09391187  0.01964730  0.03156794  1
