# generated using pymatgen
data_LiBrN
_symmetry_space_group_name_H-M   'P 1'
_cell_length_a   3.97265832
_cell_length_b   3.97283151
_cell_length_c   11.66484887
_cell_angle_alpha   90.02115464
_cell_angle_beta   90.01932263
_cell_angle_gamma   90.00002855
_symmetry_Int_Tables_number   1
_chemical_formula_structural   LiBrN
_chemical_formula_sum   'Li4 Br4 N4'
_cell_volume   184.10281234
_cell_formula_units_Z   4
loop_
 _symmetry_equiv_pos_site_id
 _symmetry_equiv_pos_as_xyz
  1  'x, y, z'
loop_
 _atom_site_type_symbol
 _atom_site_label
 _atom_site_symmetry_multiplicity
 _atom_site_fract_x
 _atom_site_fract_y
 _atom_site_fract_z
 _atom_site_occupancy
  Li  Li0  1  0.00010111  -0.00003508  0.53258386  1
  Li  Li1  1  -0.00003555  0.50011530  0.78259837  1
  Li  Li2  1  0.50009622  0.49995879  0.03257633  1
  Li  Li3  1  0.49996634  0.00010137  0.28259175  1
  Br  Br4  1  0.50002162  0.00027158  0.80289168  1
  Br  Br5  1  0.50024100  0.50002872  0.55288925  1
  Br  Br6  1  0.00023258  0.00002117  0.05287521  1
  Br  Br7  1  0.00002419  0.50024693  0.30289531  1
  N  N8  1  -0.00035158  0.50002772  0.60610327  1
  N  N9  1  0.00002244  -0.00035699  0.35609895  1
  N  N10  1  0.49966229  0.00001877  0.10609529  1
  N  N11  1  0.50001935  0.49960172  0.85609409  1
