# generated using pymatgen
data_Li4PI2
_symmetry_space_group_name_H-M   'P 1'
_cell_length_a   7.21496285
_cell_length_b   7.21480399
_cell_length_c   4.33013952
_cell_angle_alpha   89.93262006
_cell_angle_beta   90.07444007
_cell_angle_gamma   119.96057282
_symmetry_Int_Tables_number   1
_chemical_formula_structural   Li4PI2
_chemical_formula_sum   'Li4 P1 I2'
_cell_volume   195.28240571
_cell_formula_units_Z   1
loop_
 _symmetry_equiv_pos_site_id
 _symmetry_equiv_pos_as_xyz
  1  'x, y, z'
loop_
 _atom_site_type_symbol
 _atom_site_label
 _atom_site_symmetry_multiplicity
 _atom_site_fract_x
 _atom_site_fract_y
 _atom_site_fract_z
 _atom_site_occupancy
  Li  Li0  1  0.00027776  0.36331806  0.49998883  1
  Li  Li1  1  0.36333522  0.00026293  0.49983763  1
  Li  Li2  1  0.63590850  0.63591776  0.49997866  1
  Li  Li3  1  -0.00063024  -0.00064541  0.50009819  1
  P  P4  1  0.00085433  0.00087360  0.00015117  1
  I  I5  1  0.66677841  0.33347678  0.17137066  1
  I  I6  1  0.33347602  0.66679628  0.82857486  1
