# generated using pymatgen
data_K7CN2
_symmetry_space_group_name_H-M   'P 1'
_cell_length_a   10.62181743
_cell_length_b   10.88823695
_cell_length_c   6.73408482
_cell_angle_alpha   89.31908456
_cell_angle_beta   89.05327566
_cell_angle_gamma   91.35238928
_symmetry_Int_Tables_number   1
_chemical_formula_structural   K7CN2
_chemical_formula_sum   'K14 C2 N4'
_cell_volume   778.43428446
_cell_formula_units_Z   2
loop_
 _symmetry_equiv_pos_site_id
 _symmetry_equiv_pos_as_xyz
  1  'x, y, z'
loop_
 _atom_site_type_symbol
 _atom_site_label
 _atom_site_symmetry_multiplicity
 _atom_site_fract_x
 _atom_site_fract_y
 _atom_site_fract_z
 _atom_site_occupancy
  K  K0  1  0.58664557  0.37649904  0.27918168  1
  K  K1  1  0.23903326  0.31619022  -0.10527666  1
  K  K2  1  0.89779870  0.38396031  0.79284052  1
  K  K3  1  0.79623842  0.79718191  -0.11106542  1
  K  K4  1  0.13671912  0.76915293  0.73753960  1
  K  K5  1  0.51252037  0.58883276  0.74817801  1
  K  K6  1  0.18582101  0.42386219  0.41492654  1
  K  K7  1  0.31933219  0.77020372  0.20415113  1
  K  K8  1  0.68030890  0.90964765  0.37422955  1
  K  K9  1  0.53928476  0.10314320  -0.15155096  1
  K  K10  1  -0.09069107  0.16403403  0.37343793  1
  K  K11  1  0.23965758  0.07947337  0.43990367  1
  K  K12  1  0.99409048  0.05691662  0.86123881  1
  K  K13  1  -0.09047576  0.63170509  0.32073749  1
  C  C14  1  0.05429965  -0.13840845  0.15449743  1
  C  C15  1  -0.02887273  -0.11491639  0.41258393  1
  N  N16  1  0.08307613  0.24298030  0.62197557  1
  N  N17  1  -0.08438521  0.89285545  0.57914534  1
  N  N18  1  0.09799672  -0.15371461  0.34878342  1
  N  N19  1  0.93160191  -0.09959933  0.20454242  1
