# generated using pymatgen
data_LiSI4
_symmetry_space_group_name_H-M   'P 1'
_cell_length_a   5.84513213
_cell_length_b   4.82887874
_cell_length_c   8.41552608
_cell_angle_alpha   83.93295170
_cell_angle_beta   99.69586276
_cell_angle_gamma   79.22538203
_symmetry_Int_Tables_number   1
_chemical_formula_structural   LiSI4
_chemical_formula_sum   'Li1 S1 I4'
_cell_volume   227.69139091
_cell_formula_units_Z   1
loop_
 _symmetry_equiv_pos_site_id
 _symmetry_equiv_pos_as_xyz
  1  'x, y, z'
loop_
 _atom_site_type_symbol
 _atom_site_label
 _atom_site_symmetry_multiplicity
 _atom_site_fract_x
 _atom_site_fract_y
 _atom_site_fract_z
 _atom_site_occupancy
  Li  Li0  1  0.49816409  0.53599336  0.31294086  1
  S  S1  1  0.07706714  0.08365391  0.90389009  1
  I  I2  1  0.50995732  0.87417128  0.00105462  1
  I  I3  1  -0.07150510  0.50648404  0.70507203  1
  I  I4  1  -0.02439590  0.50169196  0.21784682  1
  I  I5  1  0.51071245  -0.00199455  0.48419558  1
