# generated using pymatgen
data_K2(P4I)3
_symmetry_space_group_name_H-M   'P 1'
_cell_length_a   7.81676475
_cell_length_b   7.81676481
_cell_length_c   9.04399582
_cell_angle_alpha   89.99996348
_cell_angle_beta   90.00000947
_cell_angle_gamma   119.99988880
_symmetry_Int_Tables_number   1
_chemical_formula_structural   K2(P4I)3
_chemical_formula_sum   'K2 P12 I3'
_cell_volume   478.57009658
_cell_formula_units_Z   1
loop_
 _symmetry_equiv_pos_site_id
 _symmetry_equiv_pos_as_xyz
  1  'x, y, z'
loop_
 _atom_site_type_symbol
 _atom_site_label
 _atom_site_symmetry_multiplicity
 _atom_site_fract_x
 _atom_site_fract_y
 _atom_site_fract_z
 _atom_site_occupancy
  K  K0  1  0.00000000  -0.00000000  -0.00000001  1
  K  K1  1  -0.00000002  -0.00000001  0.49999998  1
  P  P2  1  0.47545540  0.23772785  0.87028774  1
  P  P3  1  0.23772748  0.76227260  0.87028762  1
  P  P4  1  0.76227224  0.52454474  0.87028768  1
  P  P5  1  0.52454467  0.76227224  0.87028771  1
  P  P6  1  0.76227255  0.23772750  0.87028769  1
  P  P7  1  0.23772783  0.47545539  0.87028775  1
  P  P8  1  0.52454461  0.76227215  0.12971228  1
  P  P9  1  0.76227252  0.23772740  0.12971237  1
  P  P10  1  0.23772775  0.47545526  0.12971233  1
  P  P11  1  0.47545532  0.23772775  0.12971228  1
  P  P12  1  0.23772744  0.76227249  0.12971232  1
  P  P13  1  0.76227218  0.52454462  0.12971224  1
  I  I14  1  0.50000000  0.50000000  0.50000000  1
  I  I15  1  0.50000001  0.00000001  0.50000000  1
  I  I16  1  0.00000000  0.50000001  0.50000001  1
