# generated using pymatgen
data_KIO
_symmetry_space_group_name_H-M   'P 1'
_cell_length_a   4.64050444
_cell_length_b   5.61004049
_cell_length_c   7.52724768
_cell_angle_alpha   88.05611713
_cell_angle_beta   84.99298001
_cell_angle_gamma   92.47087898
_symmetry_Int_Tables_number   1
_chemical_formula_structural   KIO
_chemical_formula_sum   'K2 I2 O2'
_cell_volume   194.89085850
_cell_formula_units_Z   2
loop_
 _symmetry_equiv_pos_site_id
 _symmetry_equiv_pos_as_xyz
  1  'x, y, z'
loop_
 _atom_site_type_symbol
 _atom_site_label
 _atom_site_symmetry_multiplicity
 _atom_site_fract_x
 _atom_site_fract_y
 _atom_site_fract_z
 _atom_site_occupancy
  K  K0  1  0.71643891  0.36081862  0.46658030  1
  K  K1  1  0.28346079  0.63896774  0.09401491  1
  I  I2  1  -0.19562244  0.13958690  -0.05562013  1
  I  I3  1  0.19690036  -0.13994728  0.61645255  1
  O  O4  1  0.22932922  0.60150262  0.44803340  1
  O  O5  1  0.76949316  0.39907140  0.11180462  1
