# generated using pymatgen
data_Li5ICl9
_symmetry_space_group_name_H-M   'P 1'
_cell_length_a   9.61286944
_cell_length_b   8.68948250
_cell_length_c   9.63212964
_cell_angle_alpha   87.74875784
_cell_angle_beta   90.22020092
_cell_angle_gamma   87.68603644
_symmetry_Int_Tables_number   1
_chemical_formula_structural   Li5ICl9
_chemical_formula_sum   'Li10 I2 Cl18'
_cell_volume   803.29165460
_cell_formula_units_Z   2
loop_
 _symmetry_equiv_pos_site_id
 _symmetry_equiv_pos_as_xyz
  1  'x, y, z'
loop_
 _atom_site_type_symbol
 _atom_site_label
 _atom_site_symmetry_multiplicity
 _atom_site_fract_x
 _atom_site_fract_y
 _atom_site_fract_z
 _atom_site_occupancy
  Li  Li0  1  0.66527526  0.32665631  -0.02953962  1
  Li  Li1  1  0.13943244  0.17123343  0.54601016  1
  Li  Li2  1  0.98154565  0.56375278  0.39056516  1
  Li  Li3  1  0.27855384  0.48786508  0.11271759  1
  Li  Li4  1  -0.05705545  0.56744579  0.76995390  1
  Li  Li5  1  0.21094890  0.78875740  0.45842256  1
  Li  Li6  1  0.53459523  0.72931708  0.84577440  1
  Li  Li7  1  0.43634116  0.11560819  0.91581816  1
  Li  Li8  1  0.74457220  0.24126100  0.60897011  1
  Li  Li9  1  0.44379296  0.06406539  0.24952697  1
  I  I10  1  0.60297935  0.66653373  0.42763929  1
  I  I11  1  0.02791955  0.14051839  -0.03850135  1
  Cl  Cl12  1  -0.06954743  0.04977913  0.57440390  1
  Cl  Cl13  1  0.84831706  0.21405571  0.13229787  1
  Cl  Cl14  1  0.56661720  0.38049301  0.46911563  1
  Cl  Cl15  1  0.78121895  0.60884733  0.24579632  1
  Cl  Cl16  1  0.20926120  0.56857925  0.32543853  1
  Cl  Cl17  1  0.09170425  0.43643862  0.94808391  1
  Cl  Cl18  1  -0.03832920  0.38210761  0.58060807  1
  Cl  Cl19  1  -0.00983975  0.74115443  0.57835152  1
  Cl  Cl20  1  0.71822241  0.55567808  0.85213799  1
  Cl  Cl21  1  0.31374237  0.69634592  -0.04636682  1
  Cl  Cl22  1  0.42115960  0.73160300  0.61387316  1
  Cl  Cl23  1  0.96278126  0.87522522  -0.02239279  1
  Cl  Cl24  1  0.23164126  0.09532863  0.78240906  1
  Cl  Cl25  1  0.64126382  0.14028646  0.80322549  1
  Cl  Cl26  1  0.63629016  -0.04805237  0.38668488  1
  Cl  Cl27  1  0.49389596  0.88297277  0.05399597  1
  Cl  Cl28  1  0.45266961  0.28848184  0.09796373  1
  Cl  Cl29  1  0.24003020  0.03766078  0.36701625  1
