# generated using pymatgen
data_Li2Cl4O3
_symmetry_space_group_name_H-M   'P 1'
_cell_length_a   7.22704810
_cell_length_b   7.27950102
_cell_length_c   6.78074862
_cell_angle_alpha   91.47416975
_cell_angle_beta   95.76951203
_cell_angle_gamma   92.43486812
_symmetry_Int_Tables_number   1
_chemical_formula_structural   Li2Cl4O3
_chemical_formula_sum   'Li4 Cl8 O6'
_cell_volume   354.44145605
_cell_formula_units_Z   2
loop_
 _symmetry_equiv_pos_site_id
 _symmetry_equiv_pos_as_xyz
  1  'x, y, z'
loop_
 _atom_site_type_symbol
 _atom_site_label
 _atom_site_symmetry_multiplicity
 _atom_site_fract_x
 _atom_site_fract_y
 _atom_site_fract_z
 _atom_site_occupancy
  Li  Li0  1  0.25628160  0.10222131  -0.02140108  1
  Li  Li1  1  0.85418454  0.93288463  0.04911677  1
  Li  Li2  1  0.73541353  0.44612277  -0.08541371  1
  Li  Li3  1  0.33796218  0.60322956  -0.16030974  1
  Cl  Cl4  1  -0.08948172  -0.07782707  0.52673646  1
  Cl  Cl5  1  0.12531168  0.80278440  0.92840898  1
  Cl  Cl6  1  0.97419832  0.23702751  0.01285787  1
  Cl  Cl7  1  -0.06478379  0.38176794  0.44042828  1
  Cl  Cl8  1  0.57174320  0.55991491  0.33431600  1
  Cl  Cl9  1  0.62456924  0.75441085  0.87047885  1
  Cl  Cl10  1  0.42579852  0.30141554  0.79586963  1
  Cl  Cl11  1  0.49969209  0.04526835  0.42526034  1
  O  O12  1  -0.19113727  0.38699519  0.59698674  1
  O  O13  1  0.76276747  0.98672115  0.34034333  1
  O  O14  1  0.43913234  0.14062817  0.24386924  1
  O  O15  1  0.38965709  -0.12224609  0.45295526  1
  O  O16  1  0.75348239  0.50690132  0.22628911  1
  O  O17  1  0.09520857  0.51177956  0.46560144  1
