# generated using pymatgen
data_LiSi3P4
_symmetry_space_group_name_H-M   'P 1'
_cell_length_a   9.85908697
_cell_length_b   9.85851188
_cell_length_c   5.22654324
_cell_angle_alpha   90.00276776
_cell_angle_beta   90.00435294
_cell_angle_gamma   90.00005688
_symmetry_Int_Tables_number   1
_chemical_formula_structural   LiSi3P4
_chemical_formula_sum   'Li4 Si12 P16'
_cell_volume   507.99870790
_cell_formula_units_Z   4
loop_
 _symmetry_equiv_pos_site_id
 _symmetry_equiv_pos_as_xyz
  1  'x, y, z'
loop_
 _atom_site_type_symbol
 _atom_site_label
 _atom_site_symmetry_multiplicity
 _atom_site_fract_x
 _atom_site_fract_y
 _atom_site_fract_z
 _atom_site_occupancy
  Li  Li0  1  0.00009257  0.50095412  0.51235724  1
  Li  Li1  1  0.49941472  -0.00013513  0.51237368  1
  Li  Li2  1  0.50013691  0.00066412  0.01238100  1
  Li  Li3  1  -0.00045277  0.49978463  0.01236603  1
  Si  Si4  1  0.50004382  0.49992945  0.24467288  1
  Si  Si5  1  0.00003999  -0.00005762  0.28348176  1
  Si  Si6  1  0.25006518  0.24991779  0.76361600  1
  Si  Si7  1  0.74992190  0.75007815  0.76356657  1
  Si  Si8  1  0.25000305  0.74985208  0.76393347  1
  Si  Si9  1  0.75019416  0.24996019  0.76332111  1
  Si  Si10  1  0.00003120  -0.00006144  -0.25521819  1
  Si  Si11  1  0.50006201  0.49993520  -0.21660091  1
  Si  Si12  1  0.75006858  0.74990544  0.26359082  1
  Si  Si13  1  0.24991442  0.25008195  0.26356858  1
  Si  Si14  1  0.74999292  0.24984433  0.26391091  1
  Si  Si15  1  0.25020112  0.74996335  0.26332034  1
  P  P16  1  0.25435227  0.49994300  0.72392126  1
  P  P17  1  0.00006135  0.24553396  0.80361492  1
  P  P18  1  -0.00006298  0.75435526  0.80359743  1
  P  P19  1  0.74574571  0.50001453  0.72400178  1
  P  P20  1  0.24558957  -0.00008427  0.80366970  1
  P  P21  1  0.49997432  0.74566149  0.72398242  1
  P  P22  1  0.75444983  0.00004380  0.80351828  1
  P  P23  1  0.50004145  0.25422754  0.72388891  1
  P  P24  1  0.75433825  -0.00006203  0.22394691  1
  P  P25  1  0.50006693  0.74553773  0.30351356  1
  P  P26  1  0.49993090  0.25434007  0.30347576  1
  P  P27  1  0.24572087  0.00002569  0.22401785  1
  P  P28  1  -0.00004060  0.24571919  0.22405080  1
  P  P29  1  0.74554982  0.49990416  0.30357619  1
  P  P30  1  0.00004268  0.75417933  0.22393105  1
  P  P31  1  0.25450986  0.50004394  0.30346776  1
