# generated using pymatgen
data_NaIN4
_symmetry_space_group_name_H-M   'P 1'
_cell_length_a   5.66045019
_cell_length_b   6.53087709
_cell_length_c   5.95991564
_cell_angle_alpha   90.00034010
_cell_angle_beta   90.01667588
_cell_angle_gamma   125.28227327
_symmetry_Int_Tables_number   1
_chemical_formula_structural   NaIN4
_chemical_formula_sum   'Na1 I1 N4'
_cell_volume   179.85439457
_cell_formula_units_Z   1
loop_
 _symmetry_equiv_pos_site_id
 _symmetry_equiv_pos_as_xyz
  1  'x, y, z'
loop_
 _atom_site_type_symbol
 _atom_site_label
 _atom_site_symmetry_multiplicity
 _atom_site_fract_x
 _atom_site_fract_y
 _atom_site_fract_z
 _atom_site_occupancy
  Na  Na0  1  0.00000371  0.00000236  -0.00000081  1
  I  I1  1  0.00001674  0.00000852  0.49999914  1
  N  N2  1  0.88078352  0.42679153  0.49992741  1
  N  N3  1  0.11920362  0.57320168  0.50007363  1
  N  N4  1  0.00535170  0.41715098  0.00000068  1
  N  N5  1  0.99464070  0.58284492  -0.00000004  1
