# generated using pymatgen
data_Na4SCl9
_symmetry_space_group_name_H-M   'P 1'
_cell_length_a   8.36793834
_cell_length_b   11.83207555
_cell_length_c   7.49473712
_cell_angle_alpha   90.33061700
_cell_angle_beta   90.00064266
_cell_angle_gamma   90.00008442
_symmetry_Int_Tables_number   1
_chemical_formula_structural   Na4SCl9
_chemical_formula_sum   'Na8 S2 Cl18'
_cell_volume   742.04215754
_cell_formula_units_Z   2
loop_
 _symmetry_equiv_pos_site_id
 _symmetry_equiv_pos_as_xyz
  1  'x, y, z'
loop_
 _atom_site_type_symbol
 _atom_site_label
 _atom_site_symmetry_multiplicity
 _atom_site_fract_x
 _atom_site_fract_y
 _atom_site_fract_z
 _atom_site_occupancy
  Na  Na0  1  0.74853794  0.77305305  0.74230596  1
  Na  Na1  1  0.24848228  0.27317242  0.24236420  1
  Na  Na2  1  0.75150860  0.27321175  0.24243344  1
  Na  Na3  1  0.74843469  0.22740498  0.74149911  1
  Na  Na4  1  0.24836356  0.72719484  0.24159271  1
  Na  Na5  1  0.25143545  0.77303403  0.74231854  1
  Na  Na6  1  0.75161826  0.72718706  0.24159995  1
  Na  Na7  1  0.25154255  0.22737820  0.74159703  1
  S  S8  1  0.49999618  0.50002878  -0.01922990  1
  S  S9  1  -0.00000807  0.00004574  0.48234432  1
  Cl  Cl10  1  0.50001260  0.49982772  0.51500838  1
  Cl  Cl11  1  0.00001148  -0.00016122  0.01802387  1
  Cl  Cl12  1  0.72478767  -0.00038087  0.01880040  1
  Cl  Cl13  1  0.22487124  0.49970074  0.51586674  1
  Cl  Cl14  1  0.49999874  0.77682006  0.47910019  1
  Cl  Cl15  1  -0.00002287  0.27667215  -0.02088954  1
  Cl  Cl16  1  -0.00000231  0.72302378  -0.02148328  1
  Cl  Cl17  1  0.27530960  -0.00029462  0.01839974  1
  Cl  Cl18  1  0.49997431  0.22288322  0.47854037  1
  Cl  Cl19  1  0.77523182  0.49959247  0.51537776  1
  Cl  Cl20  1  -0.00002484  0.79883617  0.48241662  1
  Cl  Cl21  1  0.25895566  0.00019438  0.53998497  1
  Cl  Cl22  1  0.50000152  0.29876589  -0.01797407  1
  Cl  Cl23  1  0.75902441  0.50019371  0.03784905  1
  Cl  Cl24  1  0.74102670  0.00021816  0.54045788  1
  Cl  Cl25  1  0.49997713  0.70113993  -0.01849136  1
  Cl  Cl26  1  0.00000081  0.20108492  0.48192884  1
  Cl  Cl27  1  0.24095492  0.50017255  0.03825807  1
