# generated using pymatgen
data_LiSi5I2
_symmetry_space_group_name_H-M   'P 1'
_cell_length_a   7.06718840
_cell_length_b   7.06718872
_cell_length_c   6.64569088
_cell_angle_alpha   90.00000303
_cell_angle_beta   90.00000348
_cell_angle_gamma   89.99999474
_symmetry_Int_Tables_number   1
_chemical_formula_structural   LiSi5I2
_chemical_formula_sum   'Li2 Si10 I4'
_cell_volume   331.92005527
_cell_formula_units_Z   2
loop_
 _symmetry_equiv_pos_site_id
 _symmetry_equiv_pos_as_xyz
  1  'x, y, z'
loop_
 _atom_site_type_symbol
 _atom_site_label
 _atom_site_symmetry_multiplicity
 _atom_site_fract_x
 _atom_site_fract_y
 _atom_site_fract_z
 _atom_site_occupancy
  Li  Li0  1  -0.00000000  -0.00000000  0.00000001  1
  Li  Li1  1  0.50000000  0.50000000  0.49999999  1
  Si  Si2  1  0.50000000  0.50000000  0.00000000  1
  Si  Si3  1  0.00000000  -0.00000000  0.49999999  1
  Si  Si4  1  0.25000000  0.75000000  0.75000000  1
  Si  Si5  1  0.25000000  0.75000000  0.25000000  1
  Si  Si6  1  0.75000000  0.25000000  0.75000000  1
  Si  Si7  1  0.75000000  0.25000000  0.25000000  1
  Si  Si8  1  0.75000000  0.75000000  0.25000000  1
  Si  Si9  1  0.25000000  0.25000000  0.75000000  1
  Si  Si10  1  0.75000000  0.75000000  0.75000000  1
  Si  Si11  1  0.25000000  0.25000000  0.25000000  1
  I  I12  1  0.50000000  -0.00000000  0.50000000  1
  I  I13  1  0.50000000  0.00000000  0.00000000  1
  I  I14  1  0.00000000  0.50000000  0.50000000  1
  I  I15  1  0.00000000  0.50000000  -0.00000000  1
