# generated using pymatgen
data_Li3Br2O
_symmetry_space_group_name_H-M   'P 1'
_cell_length_a   3.83867608
_cell_length_b   8.91868002
_cell_length_c   6.28979470
_cell_angle_alpha   89.97043558
_cell_angle_beta   89.99998906
_cell_angle_gamma   89.99997170
_symmetry_Int_Tables_number   1
_chemical_formula_structural   Li3Br2O
_chemical_formula_sum   'Li6 Br4 O2'
_cell_volume   215.33690261
_cell_formula_units_Z   2
loop_
 _symmetry_equiv_pos_site_id
 _symmetry_equiv_pos_as_xyz
  1  'x, y, z'
loop_
 _atom_site_type_symbol
 _atom_site_label
 _atom_site_symmetry_multiplicity
 _atom_site_fract_x
 _atom_site_fract_y
 _atom_site_fract_z
 _atom_site_occupancy
  Li  Li0  1  0.49999859  0.41030651  0.48304353  1
  Li  Li1  1  0.50000190  0.91543887  0.07591689  1
  Li  Li2  1  -0.00000024  0.62272354  0.65757415  1
  Li  Li3  1  0.49999963  0.58964113  -0.01706872  1
  Li  Li4  1  0.49999843  0.08469957  0.57640982  1
  Li  Li5  1  0.00000075  0.37730373  0.15745899  1
  Br  Br6  1  0.50000223  0.82188232  0.70222014  1
  Br  Br7  1  0.00000108  0.76070995  0.21335423  1
  Br  Br8  1  0.49999941  0.17789182  0.20270852  1
  Br  Br9  1  -0.00000172  0.23937730  0.71359202  1
  O  O10  1  -0.00000044  0.53376193  -0.05347231  1
  O  O11  1  0.00000038  0.46626334  0.44663876  1
