# generated using pymatgen
data_Na(I3O2)2
_symmetry_space_group_name_H-M   'P 1'
_cell_length_a   5.04589684
_cell_length_b   7.44952486
_cell_length_c   10.96088648
_cell_angle_alpha   80.57022148
_cell_angle_beta   88.89960693
_cell_angle_gamma   120.66502372
_symmetry_Int_Tables_number   1
_chemical_formula_structural   Na(I3O2)2
_chemical_formula_sum   'Na1 I6 O4'
_cell_volume   347.03772211
_cell_formula_units_Z   1
loop_
 _symmetry_equiv_pos_site_id
 _symmetry_equiv_pos_as_xyz
  1  'x, y, z'
loop_
 _atom_site_type_symbol
 _atom_site_label
 _atom_site_symmetry_multiplicity
 _atom_site_fract_x
 _atom_site_fract_y
 _atom_site_fract_z
 _atom_site_occupancy
  Na  Na0  1  -0.00026637  -0.00000468  -0.00005524  1
  I  I1  1  -0.16056588  0.42011875  0.85077752  1
  I  I2  1  0.61211180  0.66456509  0.60246888  1
  I  I3  1  0.53519658  -0.07431100  0.74298419  1
  I  I4  1  0.16006033  0.58014091  0.14950013  1
  I  I5  1  0.38781597  0.33533574  0.39747086  1
  I  I6  1  0.46533752  0.07437164  0.25695770  1
  O  O7  1  0.07071320  0.34566877  0.95406942  1
  O  O8  1  0.47256291  0.14938191  0.86206161  1
  O  O9  1  -0.07081047  -0.34572413  0.04563547  1
  O  O10  1  0.52784441  0.85045700  0.13812946  1
