# generated using pymatgen
data_Li2CBr3
_symmetry_space_group_name_H-M   'P 1'
_cell_length_a   6.00648218
_cell_length_b   6.68182835
_cell_length_c   4.91565526
_cell_angle_alpha   84.20850870
_cell_angle_beta   96.54876528
_cell_angle_gamma   129.13293176
_symmetry_Int_Tables_number   1
_chemical_formula_structural   Li2CBr3
_chemical_formula_sum   'Li2 C1 Br3'
_cell_volume   151.92610413
_cell_formula_units_Z   1
loop_
 _symmetry_equiv_pos_site_id
 _symmetry_equiv_pos_as_xyz
  1  'x, y, z'
loop_
 _atom_site_type_symbol
 _atom_site_label
 _atom_site_symmetry_multiplicity
 _atom_site_fract_x
 _atom_site_fract_y
 _atom_site_fract_z
 _atom_site_occupancy
  Li  Li0  1  0.26376155  0.50521401  0.69794422  1
  Li  Li1  1  0.84636417  0.45673400  0.26050379  1
  C  C2  1  0.05070650  0.26587794  0.35260299  1
  Br  Br3  1  0.26396376  0.23134930  0.11066728  1
  Br  Br4  1  0.64713530  -0.05432383  0.32710399  1
  Br  Br5  1  -0.07193129  0.59514858  -0.24882226  1
