# generated using pymatgen
data_Na2N3O7
_symmetry_space_group_name_H-M   'P 1'
_cell_length_a   6.06872505
_cell_length_b   6.14177731
_cell_length_c   9.81132714
_cell_angle_alpha   90.41649880
_cell_angle_beta   88.92322183
_cell_angle_gamma   119.85979569
_symmetry_Int_Tables_number   1
_chemical_formula_structural   Na2N3O7
_chemical_formula_sum   'Na4 N6 O14'
_cell_volume   317.09091199
_cell_formula_units_Z   2
loop_
 _symmetry_equiv_pos_site_id
 _symmetry_equiv_pos_as_xyz
  1  'x, y, z'
loop_
 _atom_site_type_symbol
 _atom_site_label
 _atom_site_symmetry_multiplicity
 _atom_site_fract_x
 _atom_site_fract_y
 _atom_site_fract_z
 _atom_site_occupancy
  Na  Na0  1  0.68983969  0.32505420  0.53243632  1
  Na  Na1  1  0.02818042  -0.01930423  0.56765210  1
  Na  Na2  1  0.36934449  0.67198344  0.03575687  1
  Na  Na3  1  0.01188810  -0.03258197  0.06429582  1
  N  N4  1  0.43400295  0.04605814  0.28989211  1
  N  N5  1  -0.09296782  0.31062410  0.26001721  1
  N  N6  1  0.68404076  0.69232417  0.30818328  1
  N  N7  1  0.72401301  0.02632215  0.80179177  1
  N  N8  1  0.07720247  0.62690196  0.78879096  1
  N  N9  1  0.33657984  0.42396122  0.76927590  1
  O  O10  1  0.30231386  0.91560379  0.19341266  1
  O  O11  1  0.55530090  0.01955386  -0.11962855  1
  O  O12  1  0.01468001  0.33592181  0.14741688  1
  O  O13  1  0.01205258  0.62710510  -0.09104854  1
  O  O14  1  -0.12665583  -0.10826663  0.35094372  1
  O  O15  1  0.65355260  0.66140929  0.17946711  1
  O  O16  1  0.48942294  0.48116367  -0.13711652  1
  O  O17  1  0.70633308  0.03646005  0.67269725  1
  O  O18  1  0.37291309  0.97741956  0.40998191  1
  O  O19  1  0.94285998  0.61958260  0.69215966  1
  O  O20  1  0.00138797  0.46511569  0.35317311  1
  O  O21  1  -0.08597166  0.01935714  0.84784204  1
  O  O22  1  0.36787699  0.35066602  0.65628575  1
  O  O23  1  0.53180957  0.52756489  0.38934984  1
