# generated using pymatgen
data_NaSi2I
_symmetry_space_group_name_H-M   'P 1'
_cell_length_a   5.42916752
_cell_length_b   5.42916758
_cell_length_c   6.32175369
_cell_angle_alpha   90.00000353
_cell_angle_beta   90.00000448
_cell_angle_gamma   89.99999928
_symmetry_Int_Tables_number   1
_chemical_formula_structural   NaSi2I
_chemical_formula_sum   'Na2 Si4 I2'
_cell_volume   186.33912860
_cell_formula_units_Z   2
loop_
 _symmetry_equiv_pos_site_id
 _symmetry_equiv_pos_as_xyz
  1  'x, y, z'
loop_
 _atom_site_type_symbol
 _atom_site_label
 _atom_site_symmetry_multiplicity
 _atom_site_fract_x
 _atom_site_fract_y
 _atom_site_fract_z
 _atom_site_occupancy
  Na  Na0  1  0.49999999  0.50000000  0.50000000  1
  Na  Na1  1  -0.00000001  0.00000001  -0.00000001  1
  Si  Si2  1  0.49999999  0.00000001  0.75000000  1
  Si  Si3  1  0.50000002  0.49999998  0.00000000  1
  Si  Si4  1  0.00000002  -0.00000002  0.50000001  1
  Si  Si5  1  -0.00000001  0.50000001  0.25000000  1
  I  I6  1  -0.00000000  0.50000001  0.75000000  1
  I  I7  1  0.50000000  0.00000000  0.25000001  1
