# generated using pymatgen
data_K2I3Br
_symmetry_space_group_name_H-M   'P 1'
_cell_length_a   6.72832285
_cell_length_b   6.72836555
_cell_length_c   12.57636258
_cell_angle_alpha   90.00020666
_cell_angle_beta   89.99988350
_cell_angle_gamma   120.00030823
_symmetry_Int_Tables_number   1
_chemical_formula_structural   K2I3Br
_chemical_formula_sum   'K4 I6 Br2'
_cell_volume   493.06109214
_cell_formula_units_Z   2
loop_
 _symmetry_equiv_pos_site_id
 _symmetry_equiv_pos_as_xyz
  1  'x, y, z'
loop_
 _atom_site_type_symbol
 _atom_site_label
 _atom_site_symmetry_multiplicity
 _atom_site_fract_x
 _atom_site_fract_y
 _atom_site_fract_z
 _atom_site_occupancy
  K  K0  1  0.66666647  0.33334676  0.74999989  1
  K  K1  1  0.66666585  0.33334619  0.25000014  1
  K  K2  1  0.33333381  0.66665364  0.74999988  1
  K  K3  1  0.33333363  0.66665350  0.25000012  1
  I  I4  1  0.50000014  0.00000033  0.49999724  1
  I  I5  1  -0.00000009  0.49999956  0.00000285  1
  I  I6  1  0.50000016  0.50000036  0.49999723  1
  I  I7  1  0.49999984  0.49999956  0.00000280  1
  I  I8  1  0.00000012  0.50000040  0.49999718  1
  I  I9  1  0.49999995  -0.00000037  0.00000281  1
  Br  Br10  1  0.00000003  -0.00000006  0.74999995  1
  Br  Br11  1  0.00000010  0.00000011  0.24999991  1
