# generated using pymatgen
data_NaCl4O3
_symmetry_space_group_name_H-M   'P 1'
_cell_length_a   4.84036980
_cell_length_b   4.83830700
_cell_length_c   7.23157069
_cell_angle_alpha   87.01667507
_cell_angle_beta   87.09387493
_cell_angle_gamma   87.54923971
_symmetry_Int_Tables_number   1
_chemical_formula_structural   NaCl4O3
_chemical_formula_sum   'Na1 Cl4 O3'
_cell_volume   168.77379938
_cell_formula_units_Z   1
loop_
 _symmetry_equiv_pos_site_id
 _symmetry_equiv_pos_as_xyz
  1  'x, y, z'
loop_
 _atom_site_type_symbol
 _atom_site_label
 _atom_site_symmetry_multiplicity
 _atom_site_fract_x
 _atom_site_fract_y
 _atom_site_fract_z
 _atom_site_occupancy
  Na  Na0  1  -0.00926470  -0.00993556  0.49229593  1
  Cl  Cl1  1  0.39849126  0.39727547  0.67811720  1
  Cl  Cl2  1  0.50260980  0.50365271  0.15317733  1
  Cl  Cl3  1  0.00232708  0.50390327  0.15291628  1
  Cl  Cl4  1  0.50288423  0.00330249  0.15277094  1
  O  O5  1  0.49103534  0.10929704  0.60875988  1
  O  O6  1  0.11029129  0.48988298  0.60903031  1
  O  O7  1  0.00162569  0.00262161  0.16561157  1
