# generated using pymatgen
data_NaBr2Cl5
_symmetry_space_group_name_H-M   'P 1'
_cell_length_a   4.89916812
_cell_length_b   5.03692482
_cell_length_c   11.65032336
_cell_angle_alpha   93.21410562
_cell_angle_beta   91.38582109
_cell_angle_gamma   89.97821540
_symmetry_Int_Tables_number   1
_chemical_formula_structural   NaBr2Cl5
_chemical_formula_sum   'Na1 Br2 Cl5'
_cell_volume   286.95569597
_cell_formula_units_Z   1
loop_
 _symmetry_equiv_pos_site_id
 _symmetry_equiv_pos_as_xyz
  1  'x, y, z'
loop_
 _atom_site_type_symbol
 _atom_site_label
 _atom_site_symmetry_multiplicity
 _atom_site_fract_x
 _atom_site_fract_y
 _atom_site_fract_z
 _atom_site_occupancy
  Na  Na0  1  0.87252787  0.14970174  0.37744541  1
  Br  Br1  1  0.47070216  0.00603222  0.90527178  1
  Br  Br2  1  0.00996127  0.46532358  0.60571682  1
  Cl  Cl3  1  -0.02787816  0.01366020  -0.06277968  1
  Cl  Cl4  1  -0.13567544  0.63507622  0.26250861  1
  Cl  Cl5  1  0.36412602  0.63531281  0.25643398  1
  Cl  Cl6  1  0.36647269  0.13616140  0.26242842  1
  Cl  Cl7  1  0.07976359  -0.04126818  0.58560901  1
