# generated using pymatgen
data_K(S2I)2
_symmetry_space_group_name_H-M   'P 1'
_cell_length_a   6.66739891
_cell_length_b   6.66799630
_cell_length_c   12.81343958
_cell_angle_alpha   89.93339639
_cell_angle_beta   90.00183420
_cell_angle_gamma   90.00257928
_symmetry_Int_Tables_number   1
_chemical_formula_structural   K(S2I)2
_chemical_formula_sum   'K2 S8 I4'
_cell_volume   569.66196191
_cell_formula_units_Z   2
loop_
 _symmetry_equiv_pos_site_id
 _symmetry_equiv_pos_as_xyz
  1  'x, y, z'
loop_
 _atom_site_type_symbol
 _atom_site_label
 _atom_site_symmetry_multiplicity
 _atom_site_fract_x
 _atom_site_fract_y
 _atom_site_fract_z
 _atom_site_occupancy
  K  K0  1  0.00006742  0.00002773  -0.00000088  1
  K  K1  1  0.49997669  0.50000124  0.49998173  1
  S  S2  1  0.69003985  0.14313891  0.20135886  1
  S  S3  1  0.69006479  0.85686864  0.20137184  1
  S  S4  1  0.30999575  0.85689830  0.20136655  1
  S  S5  1  0.30996691  0.14316884  0.20134631  1
  S  S6  1  0.85686381  0.68986236  0.79880681  1
  S  S7  1  0.14310938  0.68995628  0.79879229  1
  S  S8  1  0.85688930  0.30987667  0.79847697  1
  S  S9  1  0.14313946  0.30972503  0.79846906  1
  I  I10  1  -0.00002086  0.00002932  0.50000496  1
  I  I11  1  0.49994946  0.50039865  -0.00000434  1
  I  I12  1  -0.00001944  0.50006919  0.48509789  1
  I  I13  1  0.49997748  -0.00002117  0.51493198  1
