# generated using pymatgen
data_Li2SBr
_symmetry_space_group_name_H-M   'P 1'
_cell_length_a   3.71314102
_cell_length_b   3.71311195
_cell_length_c   10.13635719
_cell_angle_alpha   90.00131424
_cell_angle_beta   89.98527273
_cell_angle_gamma   90.00000743
_symmetry_Int_Tables_number   1
_chemical_formula_structural   Li2SBr
_chemical_formula_sum   'Li4 S2 Br2'
_cell_volume   139.75307681
_cell_formula_units_Z   2
loop_
 _symmetry_equiv_pos_site_id
 _symmetry_equiv_pos_as_xyz
  1  'x, y, z'
loop_
 _atom_site_type_symbol
 _atom_site_label
 _atom_site_symmetry_multiplicity
 _atom_site_fract_x
 _atom_site_fract_y
 _atom_site_fract_z
 _atom_site_occupancy
  Li  Li0  1  -0.00000661  -0.00000124  0.15664658  1
  Li  Li1  1  -0.00001116  0.49999822  0.93880978  1
  Li  Li2  1  0.00001690  0.00000045  0.65663030  1
  Li  Li3  1  0.50001817  0.00000128  0.43881618  1
  S  S4  1  -0.00001398  0.49999856  0.48610107  1
  S  S5  1  0.50001585  0.00000120  0.98609786  1
  Br  Br6  1  0.50012667  0.50001236  0.73640832  1
  Br  Br7  1  0.49985416  0.49998917  0.23638192  1
