# generated using pymatgen
data_Li3IBr
_symmetry_space_group_name_H-M   'P 1'
_cell_length_a   10.23827538
_cell_length_b   9.54428411
_cell_length_c   10.31326806
_cell_angle_alpha   87.82576536
_cell_angle_beta   90.85621860
_cell_angle_gamma   115.59841166
_symmetry_Int_Tables_number   1
_chemical_formula_structural   Li3IBr
_chemical_formula_sum   'Li18 I6 Br6'
_cell_volume   908.20691198
_cell_formula_units_Z   6
loop_
 _symmetry_equiv_pos_site_id
 _symmetry_equiv_pos_as_xyz
  1  'x, y, z'
loop_
 _atom_site_type_symbol
 _atom_site_label
 _atom_site_symmetry_multiplicity
 _atom_site_fract_x
 _atom_site_fract_y
 _atom_site_fract_z
 _atom_site_occupancy
  Li  Li0  1  0.19724804  0.68436928  0.72349391  1
  Li  Li1  1  -0.19517148  0.27221469  0.12878871  1
  Li  Li2  1  0.07860115  0.09369455  0.13904915  1
  Li  Li3  1  0.81914635  0.76003684  0.17844455  1
  Li  Li4  1  0.91588590  0.45020787  0.64509634  1
  Li  Li5  1  0.08938603  0.59359413  0.17470914  1
  Li  Li6  1  0.79579067  0.50285429  0.92471974  1
  Li  Li7  1  0.39595017  0.46452371  0.48775578  1
  Li  Li8  1  0.11072598  -0.09945170  0.49018233  1
  Li  Li9  1  -0.05810036  0.18015847  0.40029136  1
  Li  Li10  1  0.07449374  0.42011763  0.90569766  1
  Li  Li11  1  0.65880139  0.77667749  0.40088009  1
  Li  Li12  1  0.47417814  0.58385737  0.15973129  1
  Li  Li13  1  0.39448018  0.23946709  0.81379938  1
  Li  Li14  1  0.07059232  0.19071661  0.68635703  1
  Li  Li15  1  -0.08180842  0.75495643  0.72965651  1
  Li  Li16  1  0.62493512  0.44489558  0.29894104  1
  Li  Li17  1  0.57065446  -0.28646258  0.79072078  1
  I  I18  1  0.20791199  0.37397222  0.27225780  1
  I  I19  1  0.86169003  0.41715258  0.37801188  1
  I  I20  1  0.63900197  0.47664045  0.67929521  1
  I  I21  1  0.43384753  0.76469165  0.56107547  1
  I  I22  1  0.34873813  0.69626524  -0.03689840  1
  I  I23  1  0.54745774  0.27828341  0.06172379  1
  Br  Br24  1  0.09422546  0.85574251  0.24347685  1
  Br  Br25  1  0.81032845  0.02484566  0.20893332  1
  Br  Br26  1  0.28688514  0.16558363  0.58175371  1
  Br  Br27  1  0.88264514  0.94805582  0.56234124  1
  Br  Br28  1  0.15273649  0.19623183  0.91426188  1
  Br  Br29  1  0.79874253  0.77610723  0.93370215  1
