# generated using pymatgen
data_LiS2I3
_symmetry_space_group_name_H-M   'P 1'
_cell_length_a   6.11782013
_cell_length_b   6.11782030
_cell_length_c   8.53536068
_cell_angle_alpha   90.00001958
_cell_angle_beta   89.99999111
_cell_angle_gamma   120.00058958
_symmetry_Int_Tables_number   1
_chemical_formula_structural   LiS2I3
_chemical_formula_sum   'Li1 S2 I3'
_cell_volume   276.65807413
_cell_formula_units_Z   1
loop_
 _symmetry_equiv_pos_site_id
 _symmetry_equiv_pos_as_xyz
  1  'x, y, z'
loop_
 _atom_site_type_symbol
 _atom_site_label
 _atom_site_symmetry_multiplicity
 _atom_site_fract_x
 _atom_site_fract_y
 _atom_site_fract_z
 _atom_site_occupancy
  Li  Li0  1  0.00000003  -0.00000004  0.84413785  1
  S  S1  1  0.33333504  0.66666489  0.84324747  1
  S  S2  1  0.66666475  0.33333505  0.84324307  1
  I  I3  1  0.50000017  0.49999993  0.35405317  1
  I  I4  1  -0.00000015  0.49999993  0.35405295  1
  I  I5  1  0.50000017  0.00000024  0.35405295  1
