# generated using pymatgen
data_Li13P6I7
_symmetry_space_group_name_H-M   'P 1'
_cell_length_a   8.79332261
_cell_length_b   8.80369620
_cell_length_c   9.78360963
_cell_angle_alpha   90.31301280
_cell_angle_beta   89.78302102
_cell_angle_gamma   119.77947074
_symmetry_Int_Tables_number   1
_chemical_formula_structural   Li13P6I7
_chemical_formula_sum   'Li13 P6 I7'
_cell_volume   657.35776082
_cell_formula_units_Z   1
loop_
 _symmetry_equiv_pos_site_id
 _symmetry_equiv_pos_as_xyz
  1  'x, y, z'
loop_
 _atom_site_type_symbol
 _atom_site_label
 _atom_site_symmetry_multiplicity
 _atom_site_fract_x
 _atom_site_fract_y
 _atom_site_fract_z
 _atom_site_occupancy
  Li  Li0  1  -0.03041478  -0.03196448  0.00009244  1
  Li  Li1  1  0.90078890  0.44136463  0.33638124  1
  Li  Li2  1  0.51631863  0.05904129  0.36564427  1
  Li  Li3  1  0.52061627  0.44587550  0.35941195  1
  Li  Li4  1  0.12445375  0.87891146  0.28981129  1
  Li  Li5  1  0.88510229  0.74867614  0.69568675  1
  Li  Li6  1  0.88281392  0.12621713  0.70913126  1
  Li  Li7  1  0.74532218  0.88151331  0.30095866  1
  Li  Li8  1  0.18348624  0.37681146  0.17172706  1
  Li  Li9  1  0.38078905  0.18714380  0.83067459  1
  Li  Li10  1  0.05879172  0.51644255  0.63572636  1
  Li  Li11  1  0.44293887  0.90305974  0.66291689  1
  Li  Li12  1  0.44795089  0.52445898  0.64257021  1
  P  P13  1  0.73805244  0.48705122  0.54559104  1
  P  P14  1  0.48968493  0.23294258  0.58488439  1
  P  P15  1  0.74352326  0.23571918  0.54778679  1
  P  P16  1  0.23471414  0.74280960  0.45294770  1
  P  P17  1  0.23141346  0.48872962  0.41714009  1
  P  P18  1  0.48651368  0.73752170  0.45382265  1
  I  I19  1  -0.00039303  0.00032325  0.49825736  1
  I  I20  1  0.16960531  0.82844891  0.85650270  1
  I  I21  1  0.82126243  0.65626817  0.15656900  1
  I  I22  1  0.82545957  0.16747999  0.14266808  1
  I  I23  1  0.65911721  0.82289008  0.84129374  1
  I  I24  1  0.35838184  0.18187235  0.15356471  1
  I  I25  1  0.18370682  0.36039184  0.84823879  1
