# generated using pymatgen
data_Na2ICl6
_symmetry_space_group_name_H-M   'P 1'
_cell_length_a   7.79931293
_cell_length_b   5.73161414
_cell_length_c   8.12373613
_cell_angle_alpha   89.99864633
_cell_angle_beta   90.00028457
_cell_angle_gamma   65.39106634
_symmetry_Int_Tables_number   1
_chemical_formula_structural   Na2ICl6
_chemical_formula_sum   'Na2 I1 Cl6'
_cell_volume   330.16783694
_cell_formula_units_Z   1
loop_
 _symmetry_equiv_pos_site_id
 _symmetry_equiv_pos_as_xyz
  1  'x, y, z'
loop_
 _atom_site_type_symbol
 _atom_site_label
 _atom_site_symmetry_multiplicity
 _atom_site_fract_x
 _atom_site_fract_y
 _atom_site_fract_z
 _atom_site_occupancy
  Na  Na0  1  0.49999494  0.50000573  0.81907269  1
  Na  Na1  1  0.50000475  0.49999544  0.31050651  1
  I  I2  1  -0.00000237  0.49999880  0.56440840  1
  Cl  Cl3  1  0.00000345  -0.00000459  0.56458057  1
  Cl  Cl4  1  -0.00000215  0.00000531  0.06539694  1
  Cl  Cl5  1  0.32407440  0.85524039  0.06515773  1
  Cl  Cl6  1  0.67591829  0.14477022  0.06515827  1
  Cl  Cl7  1  0.64173081  0.68678710  0.56452403  1
  Cl  Cl8  1  0.35827787  0.31320159  0.56452818  1
