# generated using pymatgen
data_Li2CI
_symmetry_space_group_name_H-M   'P 1'
_cell_length_a   4.09530567
_cell_length_b   4.09515155
_cell_length_c   8.10901754
_cell_angle_alpha   90.00000774
_cell_angle_beta   90.00001500
_cell_angle_gamma   90.00000228
_symmetry_Int_Tables_number   1
_chemical_formula_structural   Li2CI
_chemical_formula_sum   'Li4 C2 I2'
_cell_volume   135.99550098
_cell_formula_units_Z   2
loop_
 _symmetry_equiv_pos_site_id
 _symmetry_equiv_pos_as_xyz
  1  'x, y, z'
loop_
 _atom_site_type_symbol
 _atom_site_label
 _atom_site_symmetry_multiplicity
 _atom_site_fract_x
 _atom_site_fract_y
 _atom_site_fract_z
 _atom_site_occupancy
  Li  Li0  1  0.49999997  0.50000003  0.49999992  1
  Li  Li1  1  0.49999996  0.50000001  -0.00000443  1
  Li  Li2  1  0.49999986  0.00000004  0.72715654  1
  Li  Li3  1  -0.00000011  0.50000009  0.27284826  1
  C  C4  1  0.50000027  -0.00000009  0.36486017  1
  C  C5  1  0.00000018  0.49999985  0.63513887  1
  I  I6  1  -0.00000020  0.00000013  0.50000089  1
  I  I7  1  0.00000007  -0.00000005  -0.00000022  1
