# generated using pymatgen
data_KBeBr2
_symmetry_space_group_name_H-M   'P 1'
_cell_length_a   8.34975135
_cell_length_b   8.34975132
_cell_length_c   8.34975161
_cell_angle_alpha   89.99999726
_cell_angle_beta   90.00000501
_cell_angle_gamma   89.99999569
_symmetry_Int_Tables_number   1
_chemical_formula_structural   KBeBr2
_chemical_formula_sum   'K4 Be4 Br8'
_cell_volume   582.13088301
_cell_formula_units_Z   4
loop_
 _symmetry_equiv_pos_site_id
 _symmetry_equiv_pos_as_xyz
  1  'x, y, z'
loop_
 _atom_site_type_symbol
 _atom_site_label
 _atom_site_symmetry_multiplicity
 _atom_site_fract_x
 _atom_site_fract_y
 _atom_site_fract_z
 _atom_site_occupancy
  K  K0  1  -0.00000007  -0.00000008  -0.00000007  1
  K  K1  1  0.50000015  0.49999981  -0.00000009  1
  K  K2  1  0.00000007  0.50000002  0.50000004  1
  K  K3  1  0.50000009  0.00000001  0.49999998  1
  Be  Be4  1  0.49999980  0.50000000  0.50000020  1
  Be  Be5  1  0.50000009  0.00000026  0.00000009  1
  Be  Be6  1  -0.00000005  -0.00000011  0.50000023  1
  Be  Be7  1  -0.00000018  0.50000004  -0.00000009  1
  Br  Br8  1  0.35487017  0.35487013  0.35486997  1
  Br  Br9  1  0.85487018  0.35487004  0.14512997  1
  Br  Br10  1  0.14513009  0.64512991  0.85487021  1
  Br  Br11  1  0.64512976  0.85486999  0.14512992  1
  Br  Br12  1  0.35486994  0.14512982  0.85486993  1
  Br  Br13  1  0.64512999  0.64512989  0.64512985  1
  Br  Br14  1  0.14512990  0.85487018  0.35487000  1
  Br  Br15  1  0.85487008  0.14513009  0.64512986  1
