# generated using pymatgen
data_LiBrN
_symmetry_space_group_name_H-M   'P 1'
_cell_length_a   5.92197812
_cell_length_b   5.20554202
_cell_length_c   7.30940716
_cell_angle_alpha   89.99512346
_cell_angle_beta   56.74860992
_cell_angle_gamma   90.00424671
_symmetry_Int_Tables_number   1
_chemical_formula_structural   LiBrN
_chemical_formula_sum   'Li4 Br4 N4'
_cell_volume   188.43557728
_cell_formula_units_Z   4
loop_
 _symmetry_equiv_pos_site_id
 _symmetry_equiv_pos_as_xyz
  1  'x, y, z'
loop_
 _atom_site_type_symbol
 _atom_site_label
 _atom_site_symmetry_multiplicity
 _atom_site_fract_x
 _atom_site_fract_y
 _atom_site_fract_z
 _atom_site_occupancy
  Li  Li0  1  0.20978944  0.12428101  0.40633548  1
  Li  Li1  1  0.81914467  0.57012632  0.28254373  1
  Li  Li2  1  0.81886185  0.42981185  0.78262459  1
  Li  Li3  1  0.20990953  -0.12435761  0.90584383  1
  Br  Br4  1  0.74924892  0.87892038  0.65050492  1
  Br  Br5  1  0.33614623  0.35298424  0.71262267  1
  Br  Br6  1  0.33605637  0.64720057  0.21269540  1
  Br  Br7  1  0.74940770  0.12107662  0.15038606  1
  N  N8  1  0.03671399  0.48301513  0.43259008  1
  N  N9  1  0.49914204  -0.17173495  0.35185803  1
  N  N10  1  0.49892283  0.17171138  0.85183596  1
  N  N11  1  0.03667783  0.51696506  0.93268893  1
