# generated using pymatgen
data_Li3I2N
_symmetry_space_group_name_H-M   'P 1'
_cell_length_a   7.75480954
_cell_length_b   8.37492958
_cell_length_c   9.38851465
_cell_angle_alpha   80.88831289
_cell_angle_beta   95.97969779
_cell_angle_gamma   93.78686716
_symmetry_Int_Tables_number   1
_chemical_formula_structural   Li3I2N
_chemical_formula_sum   'Li12 I8 N4'
_cell_volume   598.01374743
_cell_formula_units_Z   4
loop_
 _symmetry_equiv_pos_site_id
 _symmetry_equiv_pos_as_xyz
  1  'x, y, z'
loop_
 _atom_site_type_symbol
 _atom_site_label
 _atom_site_symmetry_multiplicity
 _atom_site_fract_x
 _atom_site_fract_y
 _atom_site_fract_z
 _atom_site_occupancy
  Li  Li0  1  0.09944468  0.12556313  0.70716737  1
  Li  Li1  1  0.34730387  0.81478074  0.70960583  1
  Li  Li2  1  0.87897882  -0.03205676  0.53563101  1
  Li  Li3  1  0.13042776  0.82999340  0.42461361  1
  Li  Li4  1  0.68517241  0.81151897  0.34200155  1
  Li  Li5  1  0.09049250  0.15402970  0.31546866  1
  Li  Li6  1  0.86209554  0.24083485  -0.08851632  1
  Li  Li7  1  0.18589340  0.20851891  0.01715040  1
  Li  Li8  1  0.96939096  0.83359012  0.84719046  1
  Li  Li9  1  0.75847555  0.15539053  0.23247414  1
  Li  Li10  1  0.00081207  0.45000774  0.14007623  1
  Li  Li11  1  -0.04805472  0.97426292  0.10935246  1
  I  I12  1  -0.13853910  0.29092853  0.48526080  1
  I  I13  1  0.40524397  0.03511975  0.26127790  1
  I  I14  1  0.67108686  -0.27162028  0.64850459  1
  I  I15  1  0.17099916  0.55625936  0.88387377  1
  I  I16  1  0.38331677  0.32591101  0.58605034  1
  I  I17  1  0.48870520  0.10452687  0.85473903  1
  I  I18  1  0.75936511  0.68164137  0.10690401  1
  I  I19  1  0.28839568  0.55918626  0.32949064  1
  N  N20  1  0.12428454  0.91562625  0.61686015  1
  N  N21  1  0.90700867  -0.04052406  0.33011799  1
  N  N22  1  0.01581888  0.05831200  0.90394854  1
  N  N23  1  -0.03611860  0.21819870  0.11668439  1
