# generated using pymatgen
data_LiB2I3
_symmetry_space_group_name_H-M   'P 1'
_cell_length_a   13.55760106
_cell_length_b   4.74988717
_cell_length_c   13.88289866
_cell_angle_alpha   90.00001920
_cell_angle_beta   89.99999316
_cell_angle_gamma   89.99920787
_symmetry_Int_Tables_number   1
_chemical_formula_structural   LiB2I3
_chemical_formula_sum   'Li4 B8 I12'
_cell_volume   894.01807165
_cell_formula_units_Z   4
loop_
 _symmetry_equiv_pos_site_id
 _symmetry_equiv_pos_as_xyz
  1  'x, y, z'
loop_
 _atom_site_type_symbol
 _atom_site_label
 _atom_site_symmetry_multiplicity
 _atom_site_fract_x
 _atom_site_fract_y
 _atom_site_fract_z
 _atom_site_occupancy
  Li  Li0  1  0.49999819  -0.00000007  0.75000816  1
  Li  Li1  1  0.49999827  -0.00000012  0.24999182  1
  Li  Li2  1  0.00000179  0.50000008  0.24999184  1
  Li  Li3  1  0.00000174  0.50000011  0.75000819  1
  B  B4  1  0.25003316  0.91425790  0.50000000  1
  B  B5  1  0.74996634  0.91425310  0.00000000  1
  B  B6  1  0.74996691  0.08574280  0.50000000  1
  B  B7  1  0.25003388  0.08574652  -0.00000000  1
  B  B8  1  0.24996684  0.58574210  0.50000000  1
  B  B9  1  0.75003365  0.58574690  -0.00000000  1
  B  B10  1  0.75003309  0.41425720  0.50000000  1
  B  B11  1  0.24996613  0.41425348  0.00000000  1
  I  I12  1  0.12960469  0.25698413  0.49999997  1
  I  I13  1  0.87039452  0.74301556  0.50000003  1
  I  I14  1  0.62960548  0.75698444  0.49999997  1
  I  I15  1  0.37039531  0.24301587  0.50000004  1
  I  I16  1  0.12960291  0.74301665  -0.00000010  1
  I  I17  1  0.62960418  0.24301735  -0.00000009  1
  I  I18  1  0.87039582  0.25698265  0.00000009  1
  I  I19  1  0.37039709  0.75698335  0.00000010  1
  I  I20  1  0.50000401  0.49999991  0.74999178  1
  I  I21  1  -0.00000398  0.00000010  0.25000822  1
  I  I22  1  0.50000389  0.49999985  0.25000824  1
  I  I23  1  -0.00000391  0.00000014  0.74999175  1
