# generated using pymatgen
data_Li4SiBr5
_symmetry_space_group_name_H-M   'P 1'
_cell_length_a   7.40043570
_cell_length_b   7.69089196
_cell_length_c   12.62295071
_cell_angle_alpha   89.99985305
_cell_angle_beta   89.99999710
_cell_angle_gamma   90.00000035
_symmetry_Int_Tables_number   1
_chemical_formula_structural   Li4SiBr5
_chemical_formula_sum   'Li8 Si2 Br10'
_cell_volume   718.44724926
_cell_formula_units_Z   2
loop_
 _symmetry_equiv_pos_site_id
 _symmetry_equiv_pos_as_xyz
  1  'x, y, z'
loop_
 _atom_site_type_symbol
 _atom_site_label
 _atom_site_symmetry_multiplicity
 _atom_site_fract_x
 _atom_site_fract_y
 _atom_site_fract_z
 _atom_site_occupancy
  Li  Li0  1  0.00000012  -0.00000013  0.45494034  1
  Li  Li1  1  0.50000008  0.49999989  0.95494040  1
  Li  Li2  1  0.00000003  0.00000030  0.00847265  1
  Li  Li3  1  0.50000001  0.50000035  0.50847261  1
  Li  Li4  1  0.50000000  0.18720070  0.13435602  1
  Li  Li5  1  0.49999995  0.81279787  0.13435558  1
  Li  Li6  1  -0.00000001  0.68720101  0.63435562  1
  Li  Li7  1  -0.00000004  0.31279817  0.63435578  1
  Si  Si8  1  0.50000003  -0.00000102  0.94775965  1
  Si  Si9  1  0.00000001  0.49999924  0.44775959  1
  Br  Br10  1  0.25241393  0.25316045  0.00370684  1
  Br  Br11  1  0.74758619  0.25316040  0.00370688  1
  Br  Br12  1  0.49999978  0.00000144  0.28109858  1
  Br  Br13  1  0.25241432  0.74683999  0.00370756  1
  Br  Br14  1  0.74758568  0.74683995  0.00370762  1
  Br  Br15  1  0.75241412  0.75316029  0.50370674  1
  Br  Br16  1  0.24758600  0.75316025  0.50370680  1
  Br  Br17  1  -0.00000021  0.50000111  0.78109861  1
  Br  Br18  1  0.75241418  0.24683989  0.50370753  1
  Br  Br19  1  0.24758583  0.24683984  0.50370760  1
