# generated using pymatgen
data_NaBr3O5
_symmetry_space_group_name_H-M   'P 1'
_cell_length_a   6.77322644
_cell_length_b   6.94997920
_cell_length_c   8.33923761
_cell_angle_alpha   90.64681071
_cell_angle_beta   90.90749122
_cell_angle_gamma   91.13954405
_symmetry_Int_Tables_number   1
_chemical_formula_structural   NaBr3O5
_chemical_formula_sum   'Na2 Br6 O10'
_cell_volume   392.40615521
_cell_formula_units_Z   2
loop_
 _symmetry_equiv_pos_site_id
 _symmetry_equiv_pos_as_xyz
  1  'x, y, z'
loop_
 _atom_site_type_symbol
 _atom_site_label
 _atom_site_symmetry_multiplicity
 _atom_site_fract_x
 _atom_site_fract_y
 _atom_site_fract_z
 _atom_site_occupancy
  Na  Na0  1  0.50736449  0.47246162  0.37059791  1
  Na  Na1  1  0.05803143  0.10453531  0.51290143  1
  Br  Br2  1  0.37991798  0.49025813  -0.18582819  1
  Br  Br3  1  0.70499190  0.25270127  0.03275119  1
  Br  Br4  1  0.51769766  -0.00298270  0.52805676  1
  Br  Br5  1  0.70381645  0.74934461  0.03311313  1
  Br  Br6  1  0.11463474  0.01021942  -0.01433483  1
  Br  Br7  1  0.00444968  0.59121636  0.51569570  1
  O  O8  1  -0.12973470  0.00583874  0.08603120  1
  O  O9  1  0.57119971  0.79331650  0.43868973  1
  O  O10  1  0.41599352  0.14169943  0.39329515  1
  O  O11  1  0.72169783  0.09740242  0.60231515  1
  O  O12  1  0.35109843  0.96713414  0.66833008  1
  O  O13  1  0.53103942  0.49770226  0.01028880  1
  O  O14  1  0.85936394  0.43962577  0.41121661  1
  O  O15  1  0.07171338  0.77381931  0.40345643  1
  O  O16  1  0.90931417  0.66006445  0.68457514  1
  O  O17  1  0.20740998  0.45564296  0.55329375  1
