# generated using pymatgen
data_Na3C2S9
_symmetry_space_group_name_H-M   'P 1'
_cell_length_a   6.40372698
_cell_length_b   6.40372714
_cell_length_c   7.87157604
_cell_angle_alpha   90.00000594
_cell_angle_beta   90.00000660
_cell_angle_gamma   120.01911262
_symmetry_Int_Tables_number   1
_chemical_formula_structural   Na3C2S9
_chemical_formula_sum   'Na3 C2 S9'
_cell_volume   279.49515184
_cell_formula_units_Z   1
loop_
 _symmetry_equiv_pos_site_id
 _symmetry_equiv_pos_as_xyz
  1  'x, y, z'
loop_
 _atom_site_type_symbol
 _atom_site_label
 _atom_site_symmetry_multiplicity
 _atom_site_fract_x
 _atom_site_fract_y
 _atom_site_fract_z
 _atom_site_occupancy
  Na  Na0  1  -0.00000001  -0.00000000  0.00000293  1
  Na  Na1  1  0.33334584  0.66665417  0.50000144  1
  Na  Na2  1  0.66665416  0.33334582  0.50000144  1
  C  C3  1  -0.00000042  -0.00000045  0.29460417  1
  C  C4  1  0.00000045  0.00000044  0.70539268  1
  S  S5  1  -0.00000002  0.00000001  0.50000984  1
  S  S6  1  0.33334920  0.66665066  0.00000364  1
  S  S7  1  0.49999993  0.49999993  0.79738843  1
  S  S8  1  0.50000014  0.00000033  0.79739412  1
  S  S9  1  0.00000032  0.50000013  0.79739417  1
  S  S10  1  0.66665077  0.33334929  0.00000363  1
  S  S11  1  0.50000008  0.50000008  0.20260494  1
  S  S12  1  0.49999987  -0.00000031  0.20259931  1
  S  S13  1  -0.00000031  0.49999990  0.20259926  1
