# generated using pymatgen
data_KBr2O
_symmetry_space_group_name_H-M   'P 1'
_cell_length_a   6.41825424
_cell_length_b   6.41789916
_cell_length_c   5.58363325
_cell_angle_alpha   89.99924174
_cell_angle_beta   90.00845243
_cell_angle_gamma   89.99717651
_symmetry_Int_Tables_number   1
_chemical_formula_structural   KBr2O
_chemical_formula_sum   'K2 Br4 O2'
_cell_volume   229.99939020
_cell_formula_units_Z   2
loop_
 _symmetry_equiv_pos_site_id
 _symmetry_equiv_pos_as_xyz
  1  'x, y, z'
loop_
 _atom_site_type_symbol
 _atom_site_label
 _atom_site_symmetry_multiplicity
 _atom_site_fract_x
 _atom_site_fract_y
 _atom_site_fract_z
 _atom_site_occupancy
  K  K0  1  -0.00000001  0.00000001  0.50000001  1
  K  K1  1  0.50000001  0.50000000  -0.00000001  1
  Br  Br2  1  -0.00001747  0.49999998  0.74999910  1
  Br  Br3  1  0.49998934  -0.00000199  0.24999802  1
  Br  Br4  1  0.00001748  0.50000002  0.25000091  1
  Br  Br5  1  0.50001065  0.00000199  0.75000197  1
  O  O6  1  0.50000000  0.50000000  0.50000000  1
  O  O7  1  -0.00000000  0.00000000  0.00000000  1
