# generated using pymatgen
data_NaIN
_symmetry_space_group_name_H-M   'P 1'
_cell_length_a   4.86912353
_cell_length_b   4.86765109
_cell_length_c   9.13650057
_cell_angle_alpha   90.00001018
_cell_angle_beta   90.00000839
_cell_angle_gamma   120.24850894
_symmetry_Int_Tables_number   1
_chemical_formula_structural   NaIN
_chemical_formula_sum   'Na2 I2 N2'
_cell_volume   187.06294217
_cell_formula_units_Z   2
loop_
 _symmetry_equiv_pos_site_id
 _symmetry_equiv_pos_as_xyz
  1  'x, y, z'
loop_
 _atom_site_type_symbol
 _atom_site_label
 _atom_site_symmetry_multiplicity
 _atom_site_fract_x
 _atom_site_fract_y
 _atom_site_fract_z
 _atom_site_occupancy
  Na  Na0  1  0.66226479  0.33111242  0.29493707  1
  Na  Na1  1  0.33773533  0.66888771  0.79493705  1
  I  I2  1  0.32856015  0.66305478  0.13821139  1
  I  I3  1  0.67143986  0.33694524  0.63821144  1
  N  N4  1  0.00536036  0.00233178  0.81335723  1
  N  N5  1  -0.00536049  -0.00233193  0.31335719  1
