# generated using pymatgen
data_Li2BeBr2
_symmetry_space_group_name_H-M   'P 1'
_cell_length_a   8.21053409
_cell_length_b   4.18620511
_cell_length_c   6.57916374
_cell_angle_alpha   90.10796151
_cell_angle_beta   75.89797391
_cell_angle_gamma   89.35303696
_symmetry_Int_Tables_number   1
_chemical_formula_structural   Li2BeBr2
_chemical_formula_sum   'Li4 Be2 Br4'
_cell_volume   219.30095829
_cell_formula_units_Z   2
loop_
 _symmetry_equiv_pos_site_id
 _symmetry_equiv_pos_as_xyz
  1  'x, y, z'
loop_
 _atom_site_type_symbol
 _atom_site_label
 _atom_site_symmetry_multiplicity
 _atom_site_fract_x
 _atom_site_fract_y
 _atom_site_fract_z
 _atom_site_occupancy
  Li  Li0  1  0.29399553  0.46732461  0.48181630  1
  Li  Li1  1  0.83764515  0.49914447  0.52707338  1
  Li  Li2  1  0.83132877  -0.00399317  -0.05996380  1
  Li  Li3  1  0.20019425  -0.03201372  -0.02543750  1
  Be  Be4  1  0.60323269  0.57401668  -0.16396992  1
  Be  Be5  1  0.61227467  0.07564611  0.75397487  1
  Br  Br6  1  -0.07740013  -0.00530054  0.28928941  1
  Br  Br7  1  0.42773012  -0.03332643  0.56233569  1
  Br  Br8  1  0.35906882  0.46977100  0.08509175  1
  Br  Br9  1  0.03693014  0.48873098  0.78121646  1
