# generated using pymatgen
data_K(BrO2)2
_symmetry_space_group_name_H-M   'P 1'
_cell_length_a   9.21626118
_cell_length_b   7.42855997
_cell_length_c   8.03935599
_cell_angle_alpha   90.01748929
_cell_angle_beta   90.06065030
_cell_angle_gamma   90.00074711
_symmetry_Int_Tables_number   1
_chemical_formula_structural   K(BrO2)2
_chemical_formula_sum   'K4 Br8 O16'
_cell_volume   550.40250722
_cell_formula_units_Z   4
loop_
 _symmetry_equiv_pos_site_id
 _symmetry_equiv_pos_as_xyz
  1  'x, y, z'
loop_
 _atom_site_type_symbol
 _atom_site_label
 _atom_site_symmetry_multiplicity
 _atom_site_fract_x
 _atom_site_fract_y
 _atom_site_fract_z
 _atom_site_occupancy
  K  K0  1  0.00003283  0.50064186  0.49998441  1
  K  K1  1  0.50003614  0.00058726  0.49998356  1
  K  K2  1  -0.00004732  -0.00044364  0.00000096  1
  K  K3  1  0.49996087  0.49980185  -0.00003443  1
  Br  Br4  1  0.25008869  0.75012500  0.29851474  1
  Br  Br5  1  0.24976032  0.25025577  0.20138342  1
  Br  Br6  1  0.74978388  0.75015356  0.70154353  1
  Br  Br7  1  0.75040795  0.25049314  0.79862054  1
  Br  Br8  1  0.74960272  0.75047425  0.20148027  1
  Br  Br9  1  0.75014157  0.25024311  0.29861853  1
  Br  Br10  1  0.25027915  0.75031880  0.79854181  1
  Br  Br11  1  0.24987901  0.25009357  0.70136667  1
  O  O12  1  0.12882879  0.63532455  0.17623296  1
  O  O13  1  0.37091677  0.36438891  0.32429463  1
  O  O14  1  0.37081716  0.86448696  0.17556928  1
  O  O15  1  0.12885451  0.13548405  0.32376256  1
  O  O16  1  0.87143466  0.63540152  0.82329974  1
  O  O17  1  0.62918695  0.36425511  0.67558250  1
  O  O18  1  0.62911719  0.86425562  0.82485958  1
  O  O19  1  0.87099168  0.13498704  0.67638696  1
  O  O20  1  0.87098693  0.86415222  0.32442897  1
  O  O21  1  0.62880191  0.13514220  0.17673573  1
  O  O22  1  0.62892617  0.63529749  0.32385078  1
  O  O23  1  0.87058780  0.36436967  0.17516287  1
  O  O24  1  0.37115522  0.13560251  0.82377212  1
  O  O25  1  0.12925377  0.86443168  0.67555444  1
  O  O26  1  0.12916539  0.36441143  0.82434439  1
  O  O27  1  0.37104931  0.63526451  0.67615850  1
