# generated using pymatgen
data_NaI2Cl5
_symmetry_space_group_name_H-M   'P 1'
_cell_length_a   7.36729025
_cell_length_b   7.36729057
_cell_length_c   7.36728798
_cell_angle_alpha   90.00004172
_cell_angle_beta   89.99995751
_cell_angle_gamma   90.00001194
_symmetry_Int_Tables_number   1
_chemical_formula_structural   NaI2Cl5
_chemical_formula_sum   'Na2 I4 Cl10'
_cell_volume   399.87405374
_cell_formula_units_Z   2
loop_
 _symmetry_equiv_pos_site_id
 _symmetry_equiv_pos_as_xyz
  1  'x, y, z'
loop_
 _atom_site_type_symbol
 _atom_site_label
 _atom_site_symmetry_multiplicity
 _atom_site_fract_x
 _atom_site_fract_y
 _atom_site_fract_z
 _atom_site_occupancy
  Na  Na0  1  0.49999998  0.49999998  0.49999995  1
  Na  Na1  1  0.00000002  0.00000002  0.00000005  1
  I  I2  1  0.24999986  0.24999932  0.25000081  1
  I  I3  1  0.24999986  0.75000068  0.74999920  1
  I  I4  1  0.75000014  0.75000068  0.25000081  1
  I  I5  1  0.75000014  0.24999932  0.74999919  1
  Cl  Cl6  1  -0.00000010  0.50000019  0.50000042  1
  Cl  Cl7  1  0.50000010  -0.00000020  -0.00000042  1
  Cl  Cl8  1  -0.00000013  -0.00000018  0.50000036  1
  Cl  Cl9  1  -0.00000014  0.50000015  -0.00000042  1
  Cl  Cl10  1  0.50000013  0.50000018  -0.00000036  1
  Cl  Cl11  1  0.50000014  -0.00000015  0.50000042  1
  Cl  Cl12  1  0.24999992  0.24999959  0.74999952  1
  Cl  Cl13  1  0.24999992  0.75000040  0.25000048  1
  Cl  Cl14  1  0.75000009  0.75000043  0.74999949  1
  Cl  Cl15  1  0.75000008  0.24999959  0.25000049  1
