# generated using pymatgen
data_Na4ICl2
_symmetry_space_group_name_H-M   'P 1'
_cell_length_a   7.46924163
_cell_length_b   7.82061517
_cell_length_c   7.53641290
_cell_angle_alpha   101.85065001
_cell_angle_beta   77.91599390
_cell_angle_gamma   86.88353224
_symmetry_Int_Tables_number   1
_chemical_formula_structural   Na4ICl2
_chemical_formula_sum   'Na8 I2 Cl4'
_cell_volume   419.11683404
_cell_formula_units_Z   2
loop_
 _symmetry_equiv_pos_site_id
 _symmetry_equiv_pos_as_xyz
  1  'x, y, z'
loop_
 _atom_site_type_symbol
 _atom_site_label
 _atom_site_symmetry_multiplicity
 _atom_site_fract_x
 _atom_site_fract_y
 _atom_site_fract_z
 _atom_site_occupancy
  Na  Na0  1  0.63259289  0.18271314  0.83817074  1
  Na  Na1  1  0.34038482  0.80818539  0.11061342  1
  Na  Na2  1  0.82987545  0.08612936  0.29356274  1
  Na  Na3  1  0.11479837  0.84426480  0.73768993  1
  Na  Na4  1  0.21518046  0.35795376  0.77328168  1
  Na  Na5  1  0.89334581  0.63142884  0.06175483  1
  Na  Na6  1  0.66049529  0.64602846  0.61622671  1
  Na  Na7  1  0.15594385  0.41703287  0.32514271  1
  I  I8  1  0.45005041  0.00119990  0.51301791  1
  I  I9  1  0.58424620  0.42932653  0.22949960  1
  Cl  Cl10  1  0.15126571  0.12408653  0.05176276  1
  Cl  Cl11  1  0.71828566  0.88121915  -0.05815068  1
  Cl  Cl12  1  -0.01306154  0.76271905  0.39841008  1
  Cl  Cl13  1  0.89159661  0.32771221  0.60901756  1
