# generated using pymatgen
data_NaSi2I5
_symmetry_space_group_name_H-M   'P 1'
_cell_length_a   6.74518892
_cell_length_b   6.74516939
_cell_length_c   6.19313438
_cell_angle_alpha   89.99964671
_cell_angle_beta   89.99967481
_cell_angle_gamma   90.00000148
_symmetry_Int_Tables_number   1
_chemical_formula_structural   NaSi2I5
_chemical_formula_sum   'Na1 Si2 I5'
_cell_volume   281.77177128
_cell_formula_units_Z   1
loop_
 _symmetry_equiv_pos_site_id
 _symmetry_equiv_pos_as_xyz
  1  'x, y, z'
loop_
 _atom_site_type_symbol
 _atom_site_label
 _atom_site_symmetry_multiplicity
 _atom_site_fract_x
 _atom_site_fract_y
 _atom_site_fract_z
 _atom_site_occupancy
  Na  Na0  1  0.50000031  0.49999969  -0.00000006  1
  Si  Si1  1  0.00000474  -0.00000499  -0.00002984  1
  Si  Si2  1  0.00000828  -0.00000872  0.50002926  1
  I  I3  1  0.00000149  0.50001121  0.49987233  1
  I  I4  1  0.49998935  -0.00000156  0.50012920  1
  I  I5  1  0.49999462  0.00000008  0.00020146  1
  I  I6  1  -0.00000012  0.50000567  -0.00020243  1
  I  I7  1  0.50000132  0.49999862  0.50000007  1
