# generated using pymatgen
data_LiIO3
_symmetry_space_group_name_H-M   'P 1'
_cell_length_a   7.70534643
_cell_length_b   6.52477882
_cell_length_c   3.98534139
_cell_angle_alpha   90.00103948
_cell_angle_beta   90.00764115
_cell_angle_gamma   90.00000424
_symmetry_Int_Tables_number   1
_chemical_formula_structural   LiIO3
_chemical_formula_sum   'Li2 I2 O6'
_cell_volume   200.36575113
_cell_formula_units_Z   2
loop_
 _symmetry_equiv_pos_site_id
 _symmetry_equiv_pos_as_xyz
  1  'x, y, z'
loop_
 _atom_site_type_symbol
 _atom_site_label
 _atom_site_symmetry_multiplicity
 _atom_site_fract_x
 _atom_site_fract_y
 _atom_site_fract_z
 _atom_site_occupancy
  Li  Li0  1  0.00000013  -0.00000037  0.72295996  1
  Li  Li1  1  0.49999925  0.50000027  0.72295414  1
  I  I2  1  -0.00000006  0.49999992  0.72139449  1
  I  I3  1  0.50000013  0.00000015  0.72139987  1
  O  O4  1  0.91230416  -0.00000011  0.22345133  1
  O  O5  1  0.08769618  -0.00000009  0.22347608  1
  O  O6  1  0.00000001  0.50000010  0.22149313  1
  O  O7  1  0.41229998  0.50000008  0.22345686  1
  O  O8  1  0.58770016  0.50000010  0.22347205  1
  O  O9  1  0.50000006  -0.00000003  0.22149833  1
