# generated using pymatgen
data_NaB2P5
_symmetry_space_group_name_H-M   'P 1'
_cell_length_a   4.24196239
_cell_length_b   4.24196197
_cell_length_c   6.45951130
_cell_angle_alpha   90.00003286
_cell_angle_beta   90.00002769
_cell_angle_gamma   90.00000166
_symmetry_Int_Tables_number   1
_chemical_formula_structural   NaB2P5
_chemical_formula_sum   'Na1 B2 P5'
_cell_volume   116.23401684
_cell_formula_units_Z   1
loop_
 _symmetry_equiv_pos_site_id
 _symmetry_equiv_pos_as_xyz
  1  'x, y, z'
loop_
 _atom_site_type_symbol
 _atom_site_label
 _atom_site_symmetry_multiplicity
 _atom_site_fract_x
 _atom_site_fract_y
 _atom_site_fract_z
 _atom_site_occupancy
  Na  Na0  1  0.00000012  -0.00000014  0.00000001  1
  B  B1  1  0.50000026  0.49999970  -0.00000001  1
  B  B2  1  0.50000012  0.49999985  0.49999999  1
  P  P3  1  0.49999995  0.00000014  0.39937745  1
  P  P4  1  -0.00000012  0.50000006  0.60062254  1
  P  P5  1  0.00000007  -0.00000008  0.49999995  1
  P  P6  1  0.49999998  0.00000045  0.79840698  1
  P  P7  1  -0.00000038  0.50000003  0.20159308  1
