# generated using pymatgen
data_Na2NO4
_symmetry_space_group_name_H-M   'P 1'
_cell_length_a   6.36933651
_cell_length_b   8.88084816
_cell_length_c   6.72315158
_cell_angle_alpha   90.00018346
_cell_angle_beta   89.99973900
_cell_angle_gamma   89.99918519
_symmetry_Int_Tables_number   1
_chemical_formula_structural   Na2NO4
_chemical_formula_sum   'Na8 N4 O16'
_cell_volume   380.29581169
_cell_formula_units_Z   4
loop_
 _symmetry_equiv_pos_site_id
 _symmetry_equiv_pos_as_xyz
  1  'x, y, z'
loop_
 _atom_site_type_symbol
 _atom_site_label
 _atom_site_symmetry_multiplicity
 _atom_site_fract_x
 _atom_site_fract_y
 _atom_site_fract_z
 _atom_site_occupancy
  Na  Na0  1  0.50080465  0.24881673  0.60179282  1
  Na  Na1  1  0.49922638  0.75115798  0.60178902  1
  Na  Na2  1  -0.00077369  0.74884241  0.60179159  1
  Na  Na3  1  0.00080387  0.25118446  0.60179141  1
  Na  Na4  1  0.50080397  0.74881760  0.10179497  1
  Na  Na5  1  0.49922507  0.25115841  0.10179144  1
  Na  Na6  1  -0.00077607  0.24884330  0.10179485  1
  Na  Na7  1  0.00080493  0.75118093  0.10179354  1
  N  N8  1  0.49996729  -0.00001632  0.77721248  1
  N  N9  1  -0.00002584  0.50001608  0.77721444  1
  N  N10  1  0.49998355  0.49998898  0.27725504  1
  N  N11  1  -0.00002651  0.00001485  0.27721447  1
  O  O12  1  0.75567708  0.31032138  0.85346189  1
  O  O13  1  0.24435115  0.68965963  0.85346139  1
  O  O14  1  0.74434098  0.81034844  0.85345845  1
  O  O15  1  0.25568329  0.18967625  0.85345783  1
  O  O16  1  0.75567505  0.81032025  0.35345931  1
  O  O17  1  0.24435292  0.18965884  0.35345925  1
  O  O18  1  0.74435409  0.31034555  0.35345768  1
  O  O19  1  0.25567280  0.68966696  0.35345584  1
  O  O20  1  0.84009115  -0.04174751  0.40852936  1
  O  O21  1  0.84008749  0.45824869  0.90853470  1
  O  O22  1  0.65986538  -0.04175677  0.90856074  1
  O  O23  1  0.65986445  0.45824282  0.40853845  1
  O  O24  1  0.15988648  0.54175756  0.90854866  1
  O  O25  1  0.15987871  0.04175316  0.40854840  1
  O  O26  1  0.34008970  0.04174849  0.90853413  1
  O  O27  1  0.34011169  0.54175083  0.40851866  1
