# generated using pymatgen
data_KSiBr4
_symmetry_space_group_name_H-M   'P 1'
_cell_length_a   8.35666573
_cell_length_b   9.77806879
_cell_length_c   6.37905653
_cell_angle_alpha   85.78841124
_cell_angle_beta   87.80928517
_cell_angle_gamma   79.04171419
_symmetry_Int_Tables_number   1
_chemical_formula_structural   KSiBr4
_chemical_formula_sum   'K2 Si2 Br8'
_cell_volume   510.20268478
_cell_formula_units_Z   2
loop_
 _symmetry_equiv_pos_site_id
 _symmetry_equiv_pos_as_xyz
  1  'x, y, z'
loop_
 _atom_site_type_symbol
 _atom_site_label
 _atom_site_symmetry_multiplicity
 _atom_site_fract_x
 _atom_site_fract_y
 _atom_site_fract_z
 _atom_site_occupancy
  K  K0  1  0.06417712  0.26398241  0.14887018  1
  K  K1  1  0.46873678  -0.02117803  0.60299647  1
  Si  Si2  1  0.50453260  0.54161199  0.02639662  1
  Si  Si3  1  -0.02056608  -0.02644456  0.61394716  1
  Br  Br4  1  0.77023953  0.13755073  0.41829189  1
  Br  Br5  1  0.64947520  0.67426031  0.17467983  1
  Br  Br6  1  -0.15645462  0.77635596  0.60876872  1
  Br  Br7  1  0.67095957  0.38730284  0.84263661  1
  Br  Br8  1  0.16528395  -0.08083514  0.31211774  1
  Br  Br9  1  0.37495009  0.43458376  0.28016381  1
  Br  Br10  1  0.32338739  0.66930762  0.81004120  1
  Br  Br11  1  0.18527847  0.24350209  0.66108977  1
