# generated using pymatgen
data_Li3IN
_symmetry_space_group_name_H-M   'P 1'
_cell_length_a   5.13932558
_cell_length_b   6.70902553
_cell_length_c   10.86885293
_cell_angle_alpha   89.99997473
_cell_angle_beta   89.99996907
_cell_angle_gamma   90.00007260
_symmetry_Int_Tables_number   1
_chemical_formula_structural   Li3IN
_chemical_formula_sum   'Li12 I4 N4'
_cell_volume   374.75659792
_cell_formula_units_Z   4
loop_
 _symmetry_equiv_pos_site_id
 _symmetry_equiv_pos_as_xyz
  1  'x, y, z'
loop_
 _atom_site_type_symbol
 _atom_site_label
 _atom_site_symmetry_multiplicity
 _atom_site_fract_x
 _atom_site_fract_y
 _atom_site_fract_z
 _atom_site_occupancy
  Li  Li0  1  0.75612846  0.49999758  0.09518098  1
  Li  Li1  1  0.24387111  0.50000018  0.09518160  1
  Li  Li2  1  0.25405839  0.19212087  0.69962453  1
  Li  Li3  1  0.74594368  0.19211623  0.69961890  1
  Li  Li4  1  0.25405755  0.80788191  0.69962099  1
  Li  Li5  1  0.74594266  0.80787709  0.69962488  1
  Li  Li6  1  0.74390856  0.00000489  -0.09521134  1
  Li  Li7  1  0.25609183  -0.00000317  -0.09521192  1
  Li  Li8  1  0.24588064  0.30782129  0.30039383  1
  Li  Li9  1  0.75411756  0.30782281  0.30039636  1
  Li  Li10  1  0.24588119  0.69217916  0.30039410  1
  Li  Li11  1  0.75411836  0.69218101  0.30039327  1
  I  I12  1  0.50000027  0.49999975  0.56393549  1
  I  I13  1  0.00000146  0.49999891  0.87259129  1
  I  I14  1  -0.00000029  0.00000023  0.43608453  1
  I  I15  1  0.49999855  0.00000122  0.12743377  1
  N  N16  1  -0.00000157  0.50000049  0.23191747  1
  N  N17  1  -0.00000069  -0.00000056  0.77270549  1
  N  N18  1  0.50000150  -0.00000048  0.76806006  1
  N  N19  1  0.50000077  0.50000058  0.22726574  1
