# generated using pymatgen
data_KBr3N4
_symmetry_space_group_name_H-M   'P 1'
_cell_length_a   7.07760595
_cell_length_b   7.07762277
_cell_length_c   7.07762630
_cell_angle_alpha   90.00023866
_cell_angle_beta   90.00039518
_cell_angle_gamma   90.00005713
_symmetry_Int_Tables_number   1
_chemical_formula_structural   KBr3N4
_chemical_formula_sum   'K2 Br6 N8'
_cell_volume   354.53687997
_cell_formula_units_Z   2
loop_
 _symmetry_equiv_pos_site_id
 _symmetry_equiv_pos_as_xyz
  1  'x, y, z'
loop_
 _atom_site_type_symbol
 _atom_site_label
 _atom_site_symmetry_multiplicity
 _atom_site_fract_x
 _atom_site_fract_y
 _atom_site_fract_z
 _atom_site_occupancy
  K  K0  1  0.00000009  0.00000012  0.00000002  1
  K  K1  1  0.50000009  0.50000012  0.50000002  1
  Br  Br2  1  0.00000014  0.50000006  0.50000005  1
  Br  Br3  1  0.50000009  0.00000010  0.50000000  1
  Br  Br4  1  0.50000000  0.50000004  0.00000003  1
  Br  Br5  1  0.00000005  0.50000000  0.00000002  1
  Br  Br6  1  0.50000003  0.00000011  0.00000002  1
  Br  Br7  1  0.00000001  0.00000005  0.49999996  1
  N  N8  1  0.75056862  0.24945938  0.24945549  1
  N  N9  1  0.24943135  0.75054054  0.24945551  1
  N  N10  1  0.24943129  0.24945931  0.75054424  1
  N  N11  1  0.75056857  0.75054045  0.75054474  1
  N  N12  1  0.25053403  0.74943828  0.74944208  1
  N  N13  1  0.74946582  0.74943823  0.25055757  1
  N  N14  1  0.74946591  0.25056162  0.74944213  1
  N  N15  1  0.25053392  0.25056160  0.25055812  1
