# generated using pymatgen
data_KP2Br
_symmetry_space_group_name_H-M   'P 1'
_cell_length_a   3.93999731
_cell_length_b   3.94000576
_cell_length_c   14.39858720
_cell_angle_alpha   89.99999882
_cell_angle_beta   90.00000430
_cell_angle_gamma   89.99999965
_symmetry_Int_Tables_number   1
_chemical_formula_structural   KP2Br
_chemical_formula_sum   'K2 P4 Br2'
_cell_volume   223.51808289
_cell_formula_units_Z   2
loop_
 _symmetry_equiv_pos_site_id
 _symmetry_equiv_pos_as_xyz
  1  'x, y, z'
loop_
 _atom_site_type_symbol
 _atom_site_label
 _atom_site_symmetry_multiplicity
 _atom_site_fract_x
 _atom_site_fract_y
 _atom_site_fract_z
 _atom_site_occupancy
  K  K0  1  0.50000003  0.50000004  0.74999565  1
  K  K1  1  0.50000002  0.50000006  0.25000435  1
  P  P2  1  -0.00000914  0.50000851  0.00000000  1
  P  P3  1  0.50000891  -0.00000877  0.00000000  1
  P  P4  1  -0.00000132  0.50000455  0.50000000  1
  P  P5  1  0.50000128  -0.00000468  0.50000000  1
  Br  Br6  1  0.00000010  0.00000014  0.75000454  1
  Br  Br7  1  0.00000010  0.00000015  0.24999546  1
