# generated using pymatgen
data_Li3(Br2Cl)2
_symmetry_space_group_name_H-M   'P 1'
_cell_length_a   5.14351770
_cell_length_b   4.81779573
_cell_length_c   11.28119052
_cell_angle_alpha   90.47562491
_cell_angle_beta   91.83905361
_cell_angle_gamma   89.44076274
_symmetry_Int_Tables_number   1
_chemical_formula_structural   Li3(Br2Cl)2
_chemical_formula_sum   'Li3 Br4 Cl2'
_cell_volume   279.38638680
_cell_formula_units_Z   1
loop_
 _symmetry_equiv_pos_site_id
 _symmetry_equiv_pos_as_xyz
  1  'x, y, z'
loop_
 _atom_site_type_symbol
 _atom_site_label
 _atom_site_symmetry_multiplicity
 _atom_site_fract_x
 _atom_site_fract_y
 _atom_site_fract_z
 _atom_site_occupancy
  Li  Li0  1  0.31066770  -0.18777722  0.49747749  1
  Li  Li1  1  0.34441325  0.42170509  0.04821042  1
  Li  Li2  1  0.80937289  0.31305718  0.48276827  1
  Br  Br3  1  -0.37169037  0.79862036  0.15744872  1
  Br  Br4  1  0.28653716  0.11558312  0.84399331  1
  Br  Br5  1  0.81577640  -0.18563958  0.56605708  1
  Br  Br6  1  0.30384405  0.31094646  0.41785751  1
  Cl  Cl7  1  0.12330721  0.79730387  0.14155462  1
  Cl  Cl8  1  0.37777172  0.61620071  0.84463258  1
