# generated using pymatgen
data_Na4Cl10O
_symmetry_space_group_name_H-M   'P 1'
_cell_length_a   6.11070362
_cell_length_b   5.95655006
_cell_length_c   11.21280770
_cell_angle_alpha   86.97325012
_cell_angle_beta   92.94638975
_cell_angle_gamma   98.34584004
_symmetry_Int_Tables_number   1
_chemical_formula_structural   Na4Cl10O
_chemical_formula_sum   'Na4 Cl10 O1'
_cell_volume   402.85102282
_cell_formula_units_Z   1
loop_
 _symmetry_equiv_pos_site_id
 _symmetry_equiv_pos_as_xyz
  1  'x, y, z'
loop_
 _atom_site_type_symbol
 _atom_site_label
 _atom_site_symmetry_multiplicity
 _atom_site_fract_x
 _atom_site_fract_y
 _atom_site_fract_z
 _atom_site_occupancy
  Na  Na0  1  0.28259210  0.24384588  0.66118264  1
  Na  Na1  1  0.99724732  0.49373058  0.44687350  1
  Na  Na2  1  -0.33911065  0.94092246  0.50273807  1
  Na  Na3  1  0.42240992  0.34464997  0.24475899  1
  Cl  Cl4  1  0.31452287  0.08726507  0.03281684  1
  Cl  Cl5  1  0.17043523  0.97537152  0.41986322  1
  Cl  Cl6  1  -0.01604255  0.53636461  0.70375096  1
  Cl  Cl7  1  0.32099779  0.77956331  0.72947387  1
  Cl  Cl8  1  0.58260876  -0.09396845  0.23403840  1
  Cl  Cl9  1  0.14722397  0.26502055  0.90586802  1
  Cl  Cl10  1  0.83942630  0.24177117  0.20487542  1
  Cl  Cl11  1  0.63921205  0.02532724  0.74628042  1
  Cl  Cl12  1  0.07119845  0.56986107  0.19045350  1
  Cl  Cl13  1  0.54082968  0.47096197  0.47174911  1
  O  O14  1  0.02644876  0.11931305  0.50527704  1
