# generated using pymatgen
data_NaS5I
_symmetry_space_group_name_H-M   'P 1'
_cell_length_a   6.86231772
_cell_length_b   6.86222895
_cell_length_c   8.33972391
_cell_angle_alpha   90.00039840
_cell_angle_beta   90.00030103
_cell_angle_gamma   89.99997992
_symmetry_Int_Tables_number   1
_chemical_formula_structural   NaS5I
_chemical_formula_sum   'Na2 S10 I2'
_cell_volume   392.72423158
_cell_formula_units_Z   2
loop_
 _symmetry_equiv_pos_site_id
 _symmetry_equiv_pos_as_xyz
  1  'x, y, z'
loop_
 _atom_site_type_symbol
 _atom_site_label
 _atom_site_symmetry_multiplicity
 _atom_site_fract_x
 _atom_site_fract_y
 _atom_site_fract_z
 _atom_site_occupancy
  Na  Na0  1  0.49999941  0.50000097  0.49999976  1
  Na  Na1  1  0.00000123  -0.00000142  0.49999965  1
  S  S2  1  0.50000075  0.49999981  0.00000245  1
  S  S3  1  0.30836674  0.10546720  0.14821203  1
  S  S4  1  0.89453231  0.69164435  0.85178912  1
  S  S5  1  0.69163058  0.89453284  0.14821525  1
  S  S6  1  0.10546769  0.30835825  0.85178544  1
  S  S7  1  0.00000184  -0.00000160  -0.00000049  1
  S  S8  1  0.80836154  0.39452824  0.85178522  1
  S  S9  1  0.60546254  0.19163725  0.14821365  1
  S  S10  1  0.19163837  0.60547173  0.85178657  1
  S  S11  1  0.39453749  0.80836204  0.14821110  1
  I  I12  1  0.49999903  -0.00000082  0.59813536  1
  I  I13  1  0.00000048  0.50000117  0.40186490  1
