# generated using pymatgen
data_Li4Br3N
_symmetry_space_group_name_H-M   'P 1'
_cell_length_a   5.43439160
_cell_length_b   5.42219085
_cell_length_c   5.48035692
_cell_angle_alpha   88.73526801
_cell_angle_beta   88.76425311
_cell_angle_gamma   87.99373510
_symmetry_Int_Tables_number   1
_chemical_formula_structural   Li4Br3N
_chemical_formula_sum   'Li4 Br3 N1'
_cell_volume   161.31263652
_cell_formula_units_Z   1
loop_
 _symmetry_equiv_pos_site_id
 _symmetry_equiv_pos_as_xyz
  1  'x, y, z'
loop_
 _atom_site_type_symbol
 _atom_site_label
 _atom_site_symmetry_multiplicity
 _atom_site_fract_x
 _atom_site_fract_y
 _atom_site_fract_z
 _atom_site_occupancy
  Li  Li0  1  0.49332493  0.49329370  0.84902912  1
  Li  Li1  1  0.58320582  -0.03450780  0.32795726  1
  Li  Li2  1  -0.03616299  0.58223797  0.33042030  1
  Li  Li3  1  0.03744081  0.03562964  -0.23646310  1
  Br  Br4  1  -0.00636050  0.50234506  0.85630971  1
  Br  Br5  1  0.50265778  -0.00666891  0.85516230  1
  Br  Br6  1  0.48047033  0.48107123  0.35188281  1
  N  N7  1  -0.05457619  -0.05340088  0.42967295  1
