# generated using pymatgen
data_NaICl
_symmetry_space_group_name_H-M   'P 1'
_cell_length_a   5.79198479
_cell_length_b   5.79197535
_cell_length_c   12.47593514
_cell_angle_alpha   89.99993386
_cell_angle_beta   89.99992583
_cell_angle_gamma   120.01773052
_symmetry_Int_Tables_number   1
_chemical_formula_structural   NaICl
_chemical_formula_sum   'Na3 I3 Cl3'
_cell_volume   362.39336453
_cell_formula_units_Z   3
loop_
 _symmetry_equiv_pos_site_id
 _symmetry_equiv_pos_as_xyz
  1  'x, y, z'
loop_
 _atom_site_type_symbol
 _atom_site_label
 _atom_site_symmetry_multiplicity
 _atom_site_fract_x
 _atom_site_fract_y
 _atom_site_fract_z
 _atom_site_occupancy
  Na  Na0  1  0.49999999  0.49999927  0.33410748  1
  Na  Na1  1  0.49999574  -0.00000569  0.66746283  1
  Na  Na2  1  -0.00000507  0.49999784  0.00077766  1
  I  I3  1  0.00000034  -0.00000141  0.44601404  1
  I  I4  1  -0.00000077  0.00000248  0.77933907  1
  I  I5  1  0.00000416  0.00000290  0.11266745  1
  Cl  Cl6  1  0.50000431  0.50000249  0.11140670  1
  Cl  Cl7  1  0.50000069  -0.00000081  0.44476711  1
  Cl  Cl8  1  0.00000060  0.50000293  0.77806161  1
