# generated using pymatgen
data_Na5P2I
_symmetry_space_group_name_H-M   'P 1'
_cell_length_a   8.41057518
_cell_length_b   8.41057512
_cell_length_c   5.97987520
_cell_angle_alpha   90.00019552
_cell_angle_beta   90.00019530
_cell_angle_gamma   90.00000183
_symmetry_Int_Tables_number   1
_chemical_formula_structural   Na5P2I
_chemical_formula_sum   'Na10 P4 I2'
_cell_volume   423.00306230
_cell_formula_units_Z   2
loop_
 _symmetry_equiv_pos_site_id
 _symmetry_equiv_pos_as_xyz
  1  'x, y, z'
loop_
 _atom_site_type_symbol
 _atom_site_label
 _atom_site_symmetry_multiplicity
 _atom_site_fract_x
 _atom_site_fract_y
 _atom_site_fract_z
 _atom_site_occupancy
  Na  Na0  1  -0.00000008  0.50000009  0.25000000  1
  Na  Na1  1  0.23266985  0.76733207  0.49999921  1
  Na  Na2  1  0.76733014  0.23266793  0.49999921  1
  Na  Na3  1  0.76733025  0.76733194  0.49999458  1
  Na  Na4  1  0.23266998  0.23266783  0.50000384  1
  Na  Na5  1  0.49999992  0.00000008  0.75000000  1
  Na  Na6  1  0.73266793  0.26733015  0.00000079  1
  Na  Na7  1  0.26733206  0.73266986  0.00000079  1
  Na  Na8  1  0.73266806  0.73266975  0.00000542  1
  Na  Na9  1  0.26733218  0.26733002  -0.00000384  1
  P  P10  1  0.49999986  0.00000014  0.25000000  1
  P  P11  1  -0.00000014  0.50000014  0.75000000  1
  P  P12  1  0.00000015  -0.00000015  0.50000143  1
  P  P13  1  0.50000015  0.49999985  -0.00000143  1
  I  I14  1  0.49999985  0.50000016  0.49999825  1
  I  I15  1  -0.00000015  0.00000016  0.00000175  1
