# generated using pymatgen
data_Na2SiI
_symmetry_space_group_name_H-M   'P 1'
_cell_length_a   5.89170473
_cell_length_b   5.89170489
_cell_length_c   6.39458553
_cell_angle_alpha   90.00000223
_cell_angle_beta   90.00000158
_cell_angle_gamma   90.00000401
_symmetry_Int_Tables_number   1
_chemical_formula_structural   Na2SiI
_chemical_formula_sum   'Na4 Si2 I2'
_cell_volume   221.97003955
_cell_formula_units_Z   2
loop_
 _symmetry_equiv_pos_site_id
 _symmetry_equiv_pos_as_xyz
  1  'x, y, z'
loop_
 _atom_site_type_symbol
 _atom_site_label
 _atom_site_symmetry_multiplicity
 _atom_site_fract_x
 _atom_site_fract_y
 _atom_site_fract_z
 _atom_site_occupancy
  Na  Na0  1  0.00000000  0.50000000  0.24999954  1
  Na  Na1  1  0.50000000  0.00000000  0.24999954  1
  Na  Na2  1  -0.00000000  0.50000000  0.75000046  1
  Na  Na3  1  0.50000000  -0.00000000  0.75000046  1
  Si  Si4  1  0.50000000  0.50000000  0.50000000  1
  Si  Si5  1  -0.00000000  0.00000000  -0.00000000  1
  I  I6  1  -0.00000000  -0.00000000  0.50000000  1
  I  I7  1  0.50000000  0.50000000  -0.00000000  1
