# generated using pymatgen
data_Na4Br10Cl
_symmetry_space_group_name_H-M   'P 1'
_cell_length_a   8.20511440
_cell_length_b   8.20501473
_cell_length_c   7.41888834
_cell_angle_alpha   90.00095864
_cell_angle_beta   90.00116007
_cell_angle_gamma   90.00356189
_symmetry_Int_Tables_number   1
_chemical_formula_structural   Na4Br10Cl
_chemical_formula_sum   'Na4 Br10 Cl1'
_cell_volume   499.46244549
_cell_formula_units_Z   1
loop_
 _symmetry_equiv_pos_site_id
 _symmetry_equiv_pos_as_xyz
  1  'x, y, z'
loop_
 _atom_site_type_symbol
 _atom_site_label
 _atom_site_symmetry_multiplicity
 _atom_site_fract_x
 _atom_site_fract_y
 _atom_site_fract_z
 _atom_site_occupancy
  Na  Na0  1  0.49999998  0.49999999  -0.00000045  1
  Na  Na1  1  -0.00000001  0.49999999  0.00000031  1
  Na  Na2  1  0.49999998  0.00000000  0.00000031  1
  Na  Na3  1  0.00000000  0.00000002  0.49999982  1
  Br  Br4  1  0.00000001  0.50000000  0.49999979  1
  Br  Br5  1  0.50000000  -0.00000001  0.49999979  1
  Br  Br6  1  0.85466151  0.70132350  0.25296954  1
  Br  Br7  1  0.14533828  0.29867659  0.74703047  1
  Br  Br8  1  0.70133484  0.14533738  0.25298176  1
  Br  Br9  1  0.29866522  0.85466285  0.74701824  1
  Br  Br10  1  0.70132939  0.14533293  0.74701276  1
  Br  Br11  1  0.29867053  0.85466681  0.25298724  1
  Br  Br12  1  0.14533714  0.29867837  0.25297297  1
  Br  Br13  1  0.85466310  0.70132158  0.74702704  1
  Cl  Cl14  1  0.50000001  0.50000000  0.50000042  1
