# generated using pymatgen
data_Na3SiI
_symmetry_space_group_name_H-M   'P 1'
_cell_length_a   8.55008027
_cell_length_b   8.53118412
_cell_length_c   3.75498554
_cell_angle_alpha   89.99982869
_cell_angle_beta   90.00034982
_cell_angle_gamma   120.34782192
_symmetry_Int_Tables_number   1
_chemical_formula_structural   Na3SiI
_chemical_formula_sum   'Na3 Si1 I1'
_cell_volume   236.36630173
_cell_formula_units_Z   1
loop_
 _symmetry_equiv_pos_site_id
 _symmetry_equiv_pos_as_xyz
  1  'x, y, z'
loop_
 _atom_site_type_symbol
 _atom_site_label
 _atom_site_symmetry_multiplicity
 _atom_site_fract_x
 _atom_site_fract_y
 _atom_site_fract_z
 _atom_site_occupancy
  Na  Na0  1  0.31421836  0.14023852  0.50000751  1
  Na  Na1  1  -0.14071738  0.17422353  0.49999138  1
  Na  Na2  1  0.82656994  0.68521508  0.49999974  1
  Si  Si3  1  -0.00028500  0.00112524  -0.00000131  1
  I  I4  1  0.66688075  0.33253097  0.00000270  1
