# generated using pymatgen
data_K10BrN5
_symmetry_space_group_name_H-M   'P 1'
_cell_length_a   11.00043122
_cell_length_b   11.00513798
_cell_length_c   6.99064161
_cell_angle_alpha   89.99989904
_cell_angle_beta   90.00012800
_cell_angle_gamma   89.35137963
_symmetry_Int_Tables_number   1
_chemical_formula_structural   K10BrN5
_chemical_formula_sum   'K20 Br2 N10'
_cell_volume   846.24167764
_cell_formula_units_Z   2
loop_
 _symmetry_equiv_pos_site_id
 _symmetry_equiv_pos_as_xyz
  1  'x, y, z'
loop_
 _atom_site_type_symbol
 _atom_site_label
 _atom_site_symmetry_multiplicity
 _atom_site_fract_x
 _atom_site_fract_y
 _atom_site_fract_z
 _atom_site_occupancy
  K  K0  1  0.50001263  0.00001834  0.36160190  1
  K  K1  1  0.22038501  0.87202014  0.29699299  1
  K  K2  1  0.77960943  0.12797083  0.29700292  1
  K  K3  1  0.00000121  0.49998976  0.36185311  1
  K  K4  1  0.12316342  0.21818478  0.28222213  1
  K  K5  1  0.87687293  0.78178889  0.28223299  1
  K  K6  1  0.42168222  0.29918805  0.43643791  1
  K  K7  1  0.30527974  0.57116951  0.43595228  1
  K  K8  1  0.57830841  0.70081736  0.43641407  1
  K  K9  1  0.69471918  0.42882889  0.43595641  1
  K  K10  1  -0.00000747  0.50001258  -0.13926521  1
  K  K11  1  0.87098167  0.21996293  0.79725600  1
  K  K12  1  0.12902043  0.78004983  0.79728855  1
  K  K13  1  0.49999088  0.00000940  -0.13823892  1
  K  K14  1  0.21801183  0.12456432  0.78227814  1
  K  K15  1  0.78199936  0.87541698  0.78232372  1
  K  K16  1  0.29818117  0.42387829  0.93729120  1
  K  K17  1  0.56873246  0.30479312  0.93532033  1
  K  K18  1  0.70181259  0.57611782  0.93728287  1
  K  K19  1  0.43126103  0.69518892  0.93534596  1
  Br  Br20  1  0.00000375  0.00000972  0.03265730  1
  Br  Br21  1  -0.00000422  -0.00000395  0.53278841  1
  N  N22  1  0.15722980  0.64326179  0.11651124  1
  N  N23  1  0.84276603  0.35674962  0.11652363  1
  N  N24  1  0.64133269  0.83670586  0.10199061  1
  N  N25  1  0.35867138  0.16328959  0.10195792  1
  N  N26  1  0.49998288  0.50000072  0.69318674  1
  N  N27  1  0.64229417  0.15861555  0.61552403  1
  N  N28  1  0.35769850  0.84139912  0.61551959  1
  N  N29  1  0.83618474  0.64022243  0.60136372  1
  N  N30  1  0.16382234  0.35976736  0.60137149  1
  N  N31  1  0.49999982  0.50001144  0.19217063  1
