# generated using pymatgen
data_Li2CBr4
_symmetry_space_group_name_H-M   'P 1'
_cell_length_a   7.41910107
_cell_length_b   4.10145886
_cell_length_c   6.14568702
_cell_angle_alpha   89.82402493
_cell_angle_beta   90.00616415
_cell_angle_gamma   90.00451429
_symmetry_Int_Tables_number   1
_chemical_formula_structural   Li2CBr4
_chemical_formula_sum   'Li2 C1 Br4'
_cell_volume   187.00707351
_cell_formula_units_Z   1
loop_
 _symmetry_equiv_pos_site_id
 _symmetry_equiv_pos_as_xyz
  1  'x, y, z'
loop_
 _atom_site_type_symbol
 _atom_site_label
 _atom_site_symmetry_multiplicity
 _atom_site_fract_x
 _atom_site_fract_y
 _atom_site_fract_z
 _atom_site_occupancy
  Li  Li0  1  0.00002422  -0.00221290  0.26843354  1
  Li  Li1  1  -0.00000053  0.50435095  0.92521710  1
  C  C2  1  0.49997838  0.51525160  0.29739262  1
  Br  Br3  1  0.77014783  0.00872033  -0.01446440  1
  Br  Br4  1  0.70749822  0.51383011  0.49605525  1
  Br  Br5  1  0.22986838  0.00872298  -0.01445870  1
  Br  Br6  1  0.29248350  0.51383693  0.49606451  1
