# generated using pymatgen
data_Li3SBr4
_symmetry_space_group_name_H-M   'P 1'
_cell_length_a   7.06239160
_cell_length_b   7.06415527
_cell_length_c   7.99624696
_cell_angle_alpha   89.99656995
_cell_angle_beta   90.00371407
_cell_angle_gamma   101.82520143
_symmetry_Int_Tables_number   1
_chemical_formula_structural   Li3SBr4
_chemical_formula_sum   'Li6 S2 Br8'
_cell_volume   390.46502408
_cell_formula_units_Z   2
loop_
 _symmetry_equiv_pos_site_id
 _symmetry_equiv_pos_as_xyz
  1  'x, y, z'
loop_
 _atom_site_type_symbol
 _atom_site_label
 _atom_site_symmetry_multiplicity
 _atom_site_fract_x
 _atom_site_fract_y
 _atom_site_fract_z
 _atom_site_occupancy
  Li  Li0  1  0.00001003  0.49998372  0.36895876  1
  Li  Li1  1  0.49995988  0.00001741  0.61280540  1
  Li  Li2  1  0.49997223  0.49998059  0.64250498  1
  Li  Li3  1  0.00001221  0.49999001  -0.13102309  1
  Li  Li4  1  0.49998696  0.00004526  0.11282522  1
  Li  Li5  1  0.00003147  0.00000527  0.14247571  1
  S  S6  1  -0.00002842  -0.00003767  0.83407300  1
  S  S7  1  0.50002505  0.50004360  0.33405747  1
  Br  Br8  1  0.78451899  0.31559208  0.61893413  1
  Br  Br9  1  0.66762705  0.80073183  0.85094915  1
  Br  Br10  1  0.33237154  0.19926528  0.85095459  1
  Br  Br11  1  0.21545078  0.68442158  0.61896822  1
  Br  Br12  1  0.81560301  0.28452679  0.11895881  1
  Br  Br13  1  0.30069562  0.16754622  0.35093567  1
  Br  Br14  1  0.69931810  0.83245217  0.35094673  1
  Br  Br15  1  0.18444549  0.71543588  0.11898833  1
