# generated using pymatgen
data_LiBe2S5
_symmetry_space_group_name_H-M   'P 1'
_cell_length_a   6.67101043
_cell_length_b   7.28794101
_cell_length_c   11.01011089
_cell_angle_alpha   90.00331423
_cell_angle_beta   89.99954478
_cell_angle_gamma   89.99635842
_symmetry_Int_Tables_number   1
_chemical_formula_structural   LiBe2S5
_chemical_formula_sum   'Li4 Be8 S20'
_cell_volume   535.28880422
_cell_formula_units_Z   4
loop_
 _symmetry_equiv_pos_site_id
 _symmetry_equiv_pos_as_xyz
  1  'x, y, z'
loop_
 _atom_site_type_symbol
 _atom_site_label
 _atom_site_symmetry_multiplicity
 _atom_site_fract_x
 _atom_site_fract_y
 _atom_site_fract_z
 _atom_site_occupancy
  Li  Li0  1  0.25734764  0.19643412  0.07030812  1
  Li  Li1  1  0.75737767  0.69642132  0.92968212  1
  Li  Li2  1  0.75716760  0.80353348  0.42973917  1
  Li  Li3  1  0.25721130  0.30353483  0.57026157  1
  Be  Be4  1  0.60192964  0.59690031  0.18689085  1
  Be  Be5  1  0.36243381  0.53534793  0.84338224  1
  Be  Be6  1  0.10195946  0.09685989  0.81311272  1
  Be  Be7  1  0.86241381  0.03534645  0.15661076  1
  Be  Be8  1  0.36239540  -0.03534700  0.34340003  1
  Be  Be9  1  0.60193708  -0.09684532  0.68691478  1
  Be  Be10  1  0.86241604  0.46464484  0.65660986  1
  Be  Be11  1  0.10190807  0.40313359  0.31308481  1
  S  S12  1  0.49434364  0.53867960  0.47982254  1
  S  S13  1  0.42432412  0.44640985  0.30611566  1
  S  S14  1  0.60749065  0.62157024  0.73229688  1
  S  S15  1  -0.00565717  0.03868262  0.52015407  1
  S  S16  1  0.92434882  0.94640480  0.69390551  1
  S  S17  1  0.10747081  0.12159871  0.26770326  1
  S  S18  1  0.75158731  0.20542934  0.01257682  1
  S  S19  1  0.25158041  0.70544157  -0.01258868  1
  S  S20  1  0.50066203  0.45678228  0.02136172  1
  S  S21  1  0.00065357  -0.04322507  -0.02136794  1
  S  S22  1  0.49439931  -0.03870916  -0.02016255  1
  S  S23  1  0.60745931  0.87841737  0.23232630  1
  S  S24  1  0.42438323  0.05361795  0.80611837  1
  S  S25  1  -0.00559560  0.46130101  0.02018328  1
  S  S26  1  0.92436012  0.55362197  0.19385797  1
  S  S27  1  0.10748069  0.37844630  0.76768226  1
  S  S28  1  0.25151617  0.79455598  0.48742106  1
  S  S29  1  0.75151562  0.29456198  0.51259503  1
  S  S30  1  0.50058991  0.04322850  0.52138251  1
  S  S31  1  0.00058952  0.54321971  0.47861890  1
