# generated using pymatgen
data_NaCBr3
_symmetry_space_group_name_H-M   'P 1'
_cell_length_a   5.94783946
_cell_length_b   5.09119056
_cell_length_c   5.67950754
_cell_angle_alpha   97.82147378
_cell_angle_beta   112.60637147
_cell_angle_gamma   80.76409813
_symmetry_Int_Tables_number   1
_chemical_formula_structural   NaCBr3
_chemical_formula_sum   'Na1 C1 Br3'
_cell_volume   156.18903031
_cell_formula_units_Z   1
loop_
 _symmetry_equiv_pos_site_id
 _symmetry_equiv_pos_as_xyz
  1  'x, y, z'
loop_
 _atom_site_type_symbol
 _atom_site_label
 _atom_site_symmetry_multiplicity
 _atom_site_fract_x
 _atom_site_fract_y
 _atom_site_fract_z
 _atom_site_occupancy
  Na  Na0  1  -0.16610533  0.01856093  0.10318585  1
  C  C1  1  0.51287646  0.47168358  0.53452789  1
  Br  Br2  1  0.62481909  0.06207635  0.51814593  1
  Br  Br3  1  0.13760513  0.49019397  0.31372182  1
  Br  Br4  1  0.51580464  0.55123517  -0.09458150  1
