# generated using pymatgen
data_NaICl
_symmetry_space_group_name_H-M   'P 1'
_cell_length_a   13.02352253
_cell_length_b   4.63842029
_cell_length_c   6.63870467
_cell_angle_alpha   92.06004038
_cell_angle_beta   101.70571543
_cell_angle_gamma   110.84082795
_symmetry_Int_Tables_number   1
_chemical_formula_structural   NaICl
_chemical_formula_sum   'Na3 I3 Cl3'
_cell_volume   364.43036025
_cell_formula_units_Z   3
loop_
 _symmetry_equiv_pos_site_id
 _symmetry_equiv_pos_as_xyz
  1  'x, y, z'
loop_
 _atom_site_type_symbol
 _atom_site_label
 _atom_site_symmetry_multiplicity
 _atom_site_fract_x
 _atom_site_fract_y
 _atom_site_fract_z
 _atom_site_occupancy
  Na  Na0  1  0.43075488  0.13349101  0.43426536  1
  Na  Na1  1  0.62739608  -0.02153782  -0.00383638  1
  Na  Na2  1  0.33268766  0.37329570  -0.09207293  1
  I  I3  1  0.20130733  0.75020300  0.08556864  1
  I  I4  1  0.73611961  0.71969970  0.40381443  1
  I  I5  1  0.20572381  -0.26293596  0.58422531  1
  Cl  Cl6  1  -0.07409047  -0.26915495  0.47179585  1
  Cl  Cl7  1  0.50540240  0.70680815  0.29149185  1
  Cl  Cl8  1  0.53469869  0.37013119  0.82474788  1
