# generated using pymatgen
data_Na10(Si3I4)3
_symmetry_space_group_name_H-M   'P 1'
_cell_length_a   9.93049771
_cell_length_b   9.93049867
_cell_length_c   9.93049826
_cell_angle_alpha   89.99997961
_cell_angle_beta   89.99997934
_cell_angle_gamma   90.00000081
_symmetry_Int_Tables_number   1
_chemical_formula_structural   Na10(Si3I4)3
_chemical_formula_sum   'Na10 Si9 I12'
_cell_volume   979.29404370
_cell_formula_units_Z   1
loop_
 _symmetry_equiv_pos_site_id
 _symmetry_equiv_pos_as_xyz
  1  'x, y, z'
loop_
 _atom_site_type_symbol
 _atom_site_label
 _atom_site_symmetry_multiplicity
 _atom_site_fract_x
 _atom_site_fract_y
 _atom_site_fract_z
 _atom_site_occupancy
  Na  Na0  1  0.50000000  0.50000000  0.50000000  1
  Na  Na1  1  0.00000000  0.50000000  0.50000000  1
  Na  Na2  1  0.50000000  0.50000000  -0.00000000  1
  Na  Na3  1  0.50000000  0.00000000  0.50000000  1
  Na  Na4  1  -0.00000008  -0.00000009  0.36922798  1
  Na  Na5  1  0.00000001  0.63077197  0.00000198  1
  Na  Na6  1  0.36922805  0.00000000  -0.00000197  1
  Na  Na7  1  0.00000000  0.36922804  -0.00000197  1
  Na  Na8  1  0.00000008  0.00000008  0.63077202  1
  Na  Na9  1  0.63077195  0.00000001  0.00000198  1
  Si  Si10  1  0.86127134  0.13872889  0.13872877  1
  Si  Si11  1  0.13872867  0.86127111  0.86127122  1
  Si  Si12  1  0.13872891  0.86127135  0.13872877  1
  Si  Si13  1  0.86127113  0.86127115  0.13872876  1
  Si  Si14  1  0.13872886  0.13872885  0.86127125  1
  Si  Si15  1  0.86127110  0.13872865  0.86127124  1
  Si  Si16  1  0.13872871  0.13872870  0.13872878  1
  Si  Si17  1  0.86127128  0.86127130  0.86127122  1
  Si  Si18  1  -0.00000002  -0.00000001  -0.00000001  1
  I  I19  1  0.79504452  0.50000006  0.20495546  1
  I  I20  1  0.20495548  0.49999994  0.79504454  1
  I  I21  1  0.49999994  0.20495547  0.79504456  1
  I  I22  1  0.79504450  0.20495548  0.50000000  1
  I  I23  1  0.50000006  0.79504453  0.20495545  1
  I  I24  1  0.20495550  0.79504452  0.50000000  1
  I  I25  1  0.79504451  0.49999995  0.79504447  1
  I  I26  1  0.79504450  0.79504451  0.50000006  1
  I  I27  1  0.49999995  0.79504453  0.79504447  1
  I  I28  1  0.20495549  0.50000005  0.20495554  1
  I  I29  1  0.20495550  0.20495549  0.49999994  1
  I  I30  1  0.50000006  0.20495547  0.20495554  1
