# generated using pymatgen
data_LiB4I3
_symmetry_space_group_name_H-M   'P 1'
_cell_length_a   5.32817052
_cell_length_b   5.32817105
_cell_length_c   5.32817053
_cell_angle_alpha   90.00000134
_cell_angle_beta   90.00000162
_cell_angle_gamma   90.00000104
_symmetry_Int_Tables_number   1
_chemical_formula_structural   LiB4I3
_chemical_formula_sum   'Li1 B4 I3'
_cell_volume   151.26358527
_cell_formula_units_Z   1
loop_
 _symmetry_equiv_pos_site_id
 _symmetry_equiv_pos_as_xyz
  1  'x, y, z'
loop_
 _atom_site_type_symbol
 _atom_site_label
 _atom_site_symmetry_multiplicity
 _atom_site_fract_x
 _atom_site_fract_y
 _atom_site_fract_z
 _atom_site_occupancy
  Li  Li0  1  0.50000000  0.50000000  0.49999999  1
  B  B1  1  0.00000000  0.00000000  0.00000000  1
  B  B2  1  0.50000000  0.50000000  0.00000000  1
  B  B3  1  0.50000000  -0.00000000  0.50000000  1
  B  B4  1  0.00000000  0.50000000  0.50000000  1
  I  I5  1  0.00000000  0.50000000  0.00000000  1
  I  I6  1  -0.00000000  0.00000001  0.50000000  1
  I  I7  1  0.50000000  -0.00000000  -0.00000000  1
