# generated using pymatgen
data_K2SBr
_symmetry_space_group_name_H-M   'P 1'
_cell_length_a   7.89924255
_cell_length_b   7.89924361
_cell_length_c   7.89924129
_cell_angle_alpha   90.00034075
_cell_angle_beta   89.99989030
_cell_angle_gamma   89.99978345
_symmetry_Int_Tables_number   1
_chemical_formula_structural   K2SBr
_chemical_formula_sum   'K8 S4 Br4'
_cell_volume   492.89718403
_cell_formula_units_Z   4
loop_
 _symmetry_equiv_pos_site_id
 _symmetry_equiv_pos_as_xyz
  1  'x, y, z'
loop_
 _atom_site_type_symbol
 _atom_site_label
 _atom_site_symmetry_multiplicity
 _atom_site_fract_x
 _atom_site_fract_y
 _atom_site_fract_z
 _atom_site_occupancy
  K  K0  1  0.75000039  0.25000002  0.25000000  1
  K  K1  1  0.24999921  0.75000013  0.24999993  1
  K  K2  1  0.75000041  0.75000007  0.75000034  1
  K  K3  1  0.24999917  0.24999984  0.75000032  1
  K  K4  1  0.24999959  0.74999991  0.74999996  1
  K  K5  1  0.75000083  0.24999988  0.75000006  1
  K  K6  1  0.24999958  0.24999998  0.24999969  1
  K  K7  1  0.75000072  0.75000017  0.24999969  1
  S  S8  1  0.50000001  0.00000000  0.00000001  1
  S  S9  1  0.00000001  0.50000001  -0.00000001  1
  S  S10  1  0.50000002  0.50000000  0.50000000  1
  S  S11  1  0.00000002  0.00000000  0.50000001  1
  Br  Br12  1  0.00000002  0.50000001  0.50000000  1
  Br  Br13  1  0.50000000  0.00000002  0.50000000  1
  Br  Br14  1  0.00000002  -0.00000002  0.00000001  1
  Br  Br15  1  0.50000002  0.49999999  -0.00000002  1
