# generated using pymatgen
data_Li3Br2O
_symmetry_space_group_name_H-M   'P 1'
_cell_length_a   7.11991283
_cell_length_b   7.11994559
_cell_length_c   9.10784068
_cell_angle_alpha   90.00001386
_cell_angle_beta   90.00000803
_cell_angle_gamma   89.99918822
_symmetry_Int_Tables_number   1
_chemical_formula_structural   Li3Br2O
_chemical_formula_sum   'Li12 Br8 O4'
_cell_volume   461.70733752
_cell_formula_units_Z   4
loop_
 _symmetry_equiv_pos_site_id
 _symmetry_equiv_pos_as_xyz
  1  'x, y, z'
loop_
 _atom_site_type_symbol
 _atom_site_label
 _atom_site_symmetry_multiplicity
 _atom_site_fract_x
 _atom_site_fract_y
 _atom_site_fract_z
 _atom_site_occupancy
  Li  Li0  1  0.36500575  0.15589111  0.28105894  1
  Li  Li1  1  0.55141929  0.71156763  0.07900093  1
  Li  Li2  1  0.63499413  0.84410920  0.78105970  1
  Li  Li3  1  0.44858078  0.28843266  0.57900020  1
  Li  Li4  1  0.84409122  0.36499007  0.03105963  1
  Li  Li5  1  0.28847535  0.55138244  0.82900433  1
  Li  Li6  1  0.75667963  0.09323083  0.47589689  1
  Li  Li7  1  0.09322145  0.24334665  0.72589549  1
  Li  Li8  1  0.90677847  0.75665321  0.22589627  1
  Li  Li9  1  0.24332019  0.90676847  -0.02410271  1
  Li  Li10  1  0.15590888  0.63501027  0.53105948  1
  Li  Li11  1  0.71152503  0.44861727  0.32900353  1
  Br  Br12  1  0.20554535  0.26403579  0.00864978  1
  Br  Br13  1  0.71288401  0.07129101  0.17202264  1
  Br  Br14  1  0.79445442  0.73596381  0.50864951  1
  Br  Br15  1  0.28711588  0.92870893  0.67202276  1
  Br  Br16  1  0.73595091  0.20553682  0.75865115  1
  Br  Br17  1  0.92869998  0.71284734  0.92201022  1
  Br  Br18  1  0.26404911  0.79446341  0.25865147  1
  Br  Br19  1  0.07130033  0.28715277  0.42201019  1
  O  O20  1  0.43241633  0.75479441  0.89354157  1
  O  O21  1  0.56758375  0.24520583  0.39354102  1
  O  O22  1  0.24521415  0.43243715  0.64355169  1
  O  O23  1  0.75478562  0.56756294  0.14355188  1
