# generated using pymatgen
data_Li18I12Cl
_symmetry_space_group_name_H-M   'P 1'
_cell_length_a   9.75604870
_cell_length_b   9.75605903
_cell_length_c   9.75603953
_cell_angle_alpha   90.00000193
_cell_angle_beta   90.00007963
_cell_angle_gamma   89.99997768
_symmetry_Int_Tables_number   1
_chemical_formula_structural   Li18I12Cl
_chemical_formula_sum   'Li18 I12 Cl1'
_cell_volume   928.58556991
_cell_formula_units_Z   1
loop_
 _symmetry_equiv_pos_site_id
 _symmetry_equiv_pos_as_xyz
  1  'x, y, z'
loop_
 _atom_site_type_symbol
 _atom_site_label
 _atom_site_symmetry_multiplicity
 _atom_site_fract_x
 _atom_site_fract_y
 _atom_site_fract_z
 _atom_site_occupancy
  Li  Li0  1  0.78135074  0.78135090  0.21864913  1
  Li  Li1  1  0.78135050  0.21864881  0.21864956  1
  Li  Li2  1  0.21864900  0.78135043  0.78135106  1
  Li  Li3  1  0.21864939  0.78135029  0.21864917  1
  Li  Li4  1  0.21864889  0.21864956  0.78135138  1
  Li  Li5  1  0.78135081  0.21864897  0.78135079  1
  Li  Li6  1  0.21864910  0.21864937  0.21864904  1
  Li  Li7  1  0.78135116  0.78135105  0.78135097  1
  Li  Li8  1  -0.00000285  -0.00000029  0.35396267  1
  Li  Li9  1  0.35396349  0.00000002  0.00000077  1
  Li  Li10  1  -0.00000283  -0.00000044  0.64603685  1
  Li  Li11  1  0.64603737  -0.00000017  0.00000140  1
  Li  Li12  1  0.00000204  0.35396268  -0.00000100  1
  Li  Li13  1  0.00000223  0.64603765  -0.00000075  1
  Li  Li14  1  0.49999997  0.50000000  0.49999998  1
  Li  Li15  1  0.49999884  0.49999991  -0.00000010  1
  Li  Li16  1  -0.00000004  0.50000017  0.50000047  1
  Li  Li17  1  0.50000122  0.00000008  0.49999945  1
  I  I18  1  0.19745006  0.50000001  0.19744898  1
  I  I19  1  0.80255168  0.49999965  0.80255028  1
  I  I20  1  0.19744830  0.19744917  0.49999944  1
  I  I21  1  0.49999960  0.19744916  0.19744969  1
  I  I22  1  0.50000003  0.80255087  0.80255092  1
  I  I23  1  0.80254982  0.80255077  0.50000077  1
  I  I24  1  0.80255147  0.49999968  0.19744925  1
  I  I25  1  0.19745024  0.49999985  0.80255010  1
  I  I26  1  0.50000006  0.19744924  0.80255085  1
  I  I27  1  0.49999943  0.80255081  0.19744976  1
  I  I28  1  0.80254979  0.19744911  0.50000042  1
  I  I29  1  0.19744830  0.80255080  0.49999968  1
  Cl  Cl30  1  0.00000218  0.00000188  -0.00000097  1
