# generated using pymatgen
data_Li(P2Br)2
_symmetry_space_group_name_H-M   'P 1'
_cell_length_a   3.36512724
_cell_length_b   3.36512668
_cell_length_c   12.43826011
_cell_angle_alpha   90.00003857
_cell_angle_beta   90.00008233
_cell_angle_gamma   90.00000069
_symmetry_Int_Tables_number   1
_chemical_formula_structural   Li(P2Br)2
_chemical_formula_sum   'Li1 P4 Br2'
_cell_volume   140.85184583
_cell_formula_units_Z   1
loop_
 _symmetry_equiv_pos_site_id
 _symmetry_equiv_pos_as_xyz
  1  'x, y, z'
loop_
 _atom_site_type_symbol
 _atom_site_label
 _atom_site_symmetry_multiplicity
 _atom_site_fract_x
 _atom_site_fract_y
 _atom_site_fract_z
 _atom_site_occupancy
  Li  Li0  1  0.50000009  0.50000006  0.49999406  1
  P  P1  1  -0.00000005  0.50000006  0.78096093  1
  P  P2  1  -0.00000161  0.50000012  0.21904017  1
  P  P3  1  0.50000037  -0.00000058  0.21904004  1
  P  P4  1  0.50000006  -0.00000012  0.78096051  1
  Br  Br5  1  0.00000013  0.00000005  0.50000497  1
  Br  Br6  1  0.00000102  0.00000042  -0.00000069  1
