# generated using pymatgen
data_LiI2N
_symmetry_space_group_name_H-M   'P 1'
_cell_length_a   5.06108276
_cell_length_b   5.47111612
_cell_length_c   10.56327534
_cell_angle_alpha   89.99974135
_cell_angle_beta   66.74018258
_cell_angle_gamma   90.00150359
_symmetry_Int_Tables_number   1
_chemical_formula_structural   LiI2N
_chemical_formula_sum   'Li2 I4 N2'
_cell_volume   268.72175325
_cell_formula_units_Z   2
loop_
 _symmetry_equiv_pos_site_id
 _symmetry_equiv_pos_as_xyz
  1  'x, y, z'
loop_
 _atom_site_type_symbol
 _atom_site_label
 _atom_site_symmetry_multiplicity
 _atom_site_fract_x
 _atom_site_fract_y
 _atom_site_fract_z
 _atom_site_occupancy
  Li  Li0  1  -0.00000153  0.71898898  0.75000148  1
  Li  Li1  1  0.00000153  0.28101073  0.24999856  1
  I  I2  1  0.11777756  0.70827375  0.07902831  1
  I  I3  1  0.88223055  0.70827279  0.42095594  1
  I  I4  1  0.88222315  0.29172537  0.92097113  1
  I  I5  1  0.11776879  0.29172643  0.57904461  1
  N  N6  1  0.00000711  0.06443512  0.74999443  1
  N  N7  1  -0.00000715  -0.06443315  0.25000555  1
