# generated using pymatgen
data_Li4SBr4
_symmetry_space_group_name_H-M   'P 1'
_cell_length_a   9.13994606
_cell_length_b   9.14196300
_cell_length_c   5.24611080
_cell_angle_alpha   90.00014869
_cell_angle_beta   90.00101450
_cell_angle_gamma   90.00187135
_symmetry_Int_Tables_number   1
_chemical_formula_structural   Li4SBr4
_chemical_formula_sum   'Li8 S2 Br8'
_cell_volume   438.34953549
_cell_formula_units_Z   2
loop_
 _symmetry_equiv_pos_site_id
 _symmetry_equiv_pos_as_xyz
  1  'x, y, z'
loop_
 _atom_site_type_symbol
 _atom_site_label
 _atom_site_symmetry_multiplicity
 _atom_site_fract_x
 _atom_site_fract_y
 _atom_site_fract_z
 _atom_site_occupancy
  Li  Li0  1  0.15565684  0.63295002  0.49606624  1
  Li  Li1  1  0.84435371  0.36704851  0.49600318  1
  Li  Li2  1  0.65663513  0.13251010  -0.00251337  1
  Li  Li3  1  0.34337969  0.86747777  -0.00259074  1
  Li  Li4  1  0.13250719  0.34335497  -0.00255386  1
  Li  Li5  1  0.36703965  0.15569369  0.49606530  1
  Li  Li6  1  0.63296561  0.84430347  0.49602525  1
  Li  Li7  1  0.86749955  0.65665036  -0.00254511  1
  S  S8  1  0.49998109  0.50003813  0.97800942  1
  S  S9  1  0.00001220  -0.00001212  0.49357375  1
  Br  Br10  1  0.16534518  0.63397157  -0.00383720  1
  Br  Br11  1  0.83463592  0.36603343  -0.00386747  1
  Br  Br12  1  0.66561445  0.13417547  0.49665080  1
  Br  Br13  1  0.33437851  0.86581677  0.49660794  1
  Br  Br14  1  0.13418755  0.33440947  0.49663247  1
  Br  Br15  1  0.36595678  0.16528870  -0.00383530  1
  Br  Br16  1  0.63404452  0.83470498  -0.00385720  1
  Br  Br17  1  0.86580643  0.66558471  0.49663255  1
