# generated using pymatgen
data_Li8SiCl9
_symmetry_space_group_name_H-M   'P 1'
_cell_length_a   9.75975588
_cell_length_b   9.92738407
_cell_length_c   7.46887020
_cell_angle_alpha   94.08769121
_cell_angle_beta   89.55902530
_cell_angle_gamma   89.64819557
_symmetry_Int_Tables_number   1
_chemical_formula_structural   Li8SiCl9
_chemical_formula_sum   'Li16 Si2 Cl18'
_cell_volume   721.77172015
_cell_formula_units_Z   2
loop_
 _symmetry_equiv_pos_site_id
 _symmetry_equiv_pos_as_xyz
  1  'x, y, z'
loop_
 _atom_site_type_symbol
 _atom_site_label
 _atom_site_symmetry_multiplicity
 _atom_site_fract_x
 _atom_site_fract_y
 _atom_site_fract_z
 _atom_site_occupancy
  Li  Li0  1  0.26206022  0.41662722  0.44918910  1
  Li  Li1  1  -0.01203140  0.20125779  0.40411128  1
  Li  Li2  1  0.49621921  0.15701208  0.42329540  1
  Li  Li3  1  0.74785468  0.03874951  0.65535228  1
  Li  Li4  1  0.86577839  0.52226228  0.69547417  1
  Li  Li5  1  -0.01240803  0.81514518  0.47597486  1
  Li  Li6  1  0.46746238  0.80000330  0.34419257  1
  Li  Li7  1  0.24004857  0.01346134  0.62159992  1
  Li  Li8  1  0.44284423  0.82664698  -0.12284999  1
  Li  Li9  1  0.73621196  0.07750969  0.14735885  1
  Li  Li10  1  0.86937986  0.49541959  0.19262985  1
  Li  Li11  1  0.01325006  0.20413367  0.89907902  1
  Li  Li12  1  0.48603740  0.15986992  -0.11861315  1
  Li  Li13  1  0.22424683  -0.00621120  0.14140838  1
  Li  Li14  1  0.12985813  0.63536703  0.10725554  1
  Li  Li15  1  -0.03607343  0.84576957  0.94309125  1
  Si  Si16  1  0.50679349  0.58977114  0.07473797  1
  Si  Si17  1  0.59626594  0.50391345  0.77592251  1
  Cl  Cl18  1  0.25224481  0.14418202  -0.09473104  1
  Cl  Cl19  1  0.01411083  0.44593755  0.44217716  1
  Cl  Cl20  1  0.72168267  0.20110383  -0.09990720  1
  Cl  Cl21  1  0.50243391  -0.02093067  0.63105706  1
  Cl  Cl22  1  0.89717941  0.72908819  0.19874954  1
  Cl  Cl23  1  0.63373802  0.46580791  0.24089529  1
  Cl  Cl24  1  -0.00655310  0.04474851  0.63169341  1
  Cl  Cl25  1  0.20051806  0.79501280  -0.09759778  1
  Cl  Cl26  1  0.47217790  0.65403495  0.63124916  1
  Cl  Cl27  1  0.82793214  0.76379557  0.70470859  1
  Cl  Cl28  1  0.51256529  -0.02148862  0.13782282  1
  Cl  Cl29  1  0.73242572  0.19265054  0.42409273  1
  Cl  Cl30  1  -0.00111768  0.44414430  0.93221127  1
  Cl  Cl31  1  0.25597347  0.17693684  0.38589131  1
  Cl  Cl32  1  0.31717839  0.47322324  0.13044032  1
  Cl  Cl33  1  -0.02422313  0.05207470  0.13215223  1
  Cl  Cl34  1  0.22363408  0.81611363  0.37925073  1
  Cl  Cl35  1  0.44430068  0.34685617  0.68063461  1
