# generated using pymatgen
data_LiIO
_symmetry_space_group_name_H-M   'P 1'
_cell_length_a   5.05481058
_cell_length_b   5.30544774
_cell_length_c   10.82432473
_cell_angle_alpha   94.82446523
_cell_angle_beta   80.91553495
_cell_angle_gamma   137.13880610
_symmetry_Int_Tables_number   1
_chemical_formula_structural   LiIO
_chemical_formula_sum   'Li3 I3 O3'
_cell_volume   194.76728631
_cell_formula_units_Z   3
loop_
 _symmetry_equiv_pos_site_id
 _symmetry_equiv_pos_as_xyz
  1  'x, y, z'
loop_
 _atom_site_type_symbol
 _atom_site_label
 _atom_site_symmetry_multiplicity
 _atom_site_fract_x
 _atom_site_fract_y
 _atom_site_fract_z
 _atom_site_occupancy
  Li  Li0  1  0.34571708  0.65491297  0.23716350  1
  Li  Li1  1  0.67909619  0.32103940  -0.09603744  1
  Li  Li2  1  0.01197413  -0.01156627  0.57044546  1
  I  I3  1  0.73904255  0.23665060  0.45049442  1
  I  I4  1  0.07255905  -0.09693319  0.11732311  1
  I  I5  1  0.40617167  0.56967035  0.78393053  1
  O  O6  1  -0.08479886  0.10886505  0.23532380  1
  O  O7  1  0.24863463  0.77501645  0.90219455  1
  O  O8  1  0.58160356  0.44234464  0.56858431  1
