# generated using pymatgen
data_NaSCl7
_symmetry_space_group_name_H-M   'P 1'
_cell_length_a   8.20931728
_cell_length_b   7.76153248
_cell_length_c   9.39698327
_cell_angle_alpha   91.66813222
_cell_angle_beta   96.24437020
_cell_angle_gamma   98.66273029
_symmetry_Int_Tables_number   1
_chemical_formula_structural   NaSCl7
_chemical_formula_sum   'Na2 S2 Cl14'
_cell_volume   587.77339106
_cell_formula_units_Z   2
loop_
 _symmetry_equiv_pos_site_id
 _symmetry_equiv_pos_as_xyz
  1  'x, y, z'
loop_
 _atom_site_type_symbol
 _atom_site_label
 _atom_site_symmetry_multiplicity
 _atom_site_fract_x
 _atom_site_fract_y
 _atom_site_fract_z
 _atom_site_occupancy
  Na  Na0  1  0.47877505  0.15684538  0.69686123  1
  Na  Na1  1  0.10610050  0.58698278  0.77324608  1
  S  S2  1  0.02547455  0.09971136  0.51014154  1
  S  S3  1  0.47846593  0.70349288  0.49093889  1
  Cl  Cl4  1  -0.01432700  0.41519094  0.20167430  1
  Cl  Cl5  1  0.45012466  -0.07413521  0.30345919  1
  Cl  Cl6  1  0.16340297  0.62641215  0.23530057  1
  Cl  Cl7  1  0.92361225  -0.03642534  0.32832233  1
  Cl  Cl8  1  0.60805978  0.54517459  0.38736238  1
  Cl  Cl9  1  0.43654748  0.12313265  0.14508823  1
  Cl  Cl10  1  0.58706955  0.46566042  -0.11582196  1
  Cl  Cl11  1  0.80881567  0.34013541  0.74616957  1
  Cl  Cl12  1  0.91398422  0.06961007  -0.12640015  1
  Cl  Cl13  1  0.66121930  0.84517699  0.63127097  1
  Cl  Cl14  1  -0.00518978  -0.14518541  -0.02736012  1
  Cl  Cl15  1  0.24191109  0.87125632  0.63505709  1
  Cl  Cl16  1  0.40060855  0.55971200  -0.01277549  1
  Cl  Cl17  1  0.23534522  0.34725201  0.60369253  1
