# generated using pymatgen
data_KIBr
_symmetry_space_group_name_H-M   'P 1'
_cell_length_a   6.53110996
_cell_length_b   6.53111033
_cell_length_c   6.23581045
_cell_angle_alpha   89.99999885
_cell_angle_beta   90.00000761
_cell_angle_gamma   120.00002685
_symmetry_Int_Tables_number   1
_chemical_formula_structural   KIBr
_chemical_formula_sum   'K2 I2 Br2'
_cell_volume   230.35488979
_cell_formula_units_Z   2
loop_
 _symmetry_equiv_pos_site_id
 _symmetry_equiv_pos_as_xyz
  1  'x, y, z'
loop_
 _atom_site_type_symbol
 _atom_site_label
 _atom_site_symmetry_multiplicity
 _atom_site_fract_x
 _atom_site_fract_y
 _atom_site_fract_z
 _atom_site_occupancy
  K  K0  1  0.33333326  0.66666673  0.25000000  1
  K  K1  1  0.66666674  0.33333327  0.75000001  1
  I  I2  1  0.00000001  0.00000001  0.50000032  1
  I  I3  1  -0.00000000  -0.00000001  -0.00000033  1
  Br  Br4  1  0.66666650  0.33333351  0.25000000  1
  Br  Br5  1  0.33333350  0.66666649  0.75000000  1
