# generated using pymatgen
data_Li2CBr
_symmetry_space_group_name_H-M   'P 1'
_cell_length_a   3.99692183
_cell_length_b   4.67350427
_cell_length_c   7.78757126
_cell_angle_alpha   89.99999959
_cell_angle_beta   89.88303010
_cell_angle_gamma   89.99999989
_symmetry_Int_Tables_number   1
_chemical_formula_structural   Li2CBr
_chemical_formula_sum   'Li4 C2 Br2'
_cell_volume   145.46865659
_cell_formula_units_Z   2
loop_
 _symmetry_equiv_pos_site_id
 _symmetry_equiv_pos_as_xyz
  1  'x, y, z'
loop_
 _atom_site_type_symbol
 _atom_site_label
 _atom_site_symmetry_multiplicity
 _atom_site_fract_x
 _atom_site_fract_y
 _atom_site_fract_z
 _atom_site_occupancy
  Li  Li0  1  0.47654606  -0.00000002  0.83663378  1
  Li  Li1  1  -0.02435702  0.50000000  0.68891907  1
  Li  Li2  1  0.47612615  0.00000002  0.33656957  1
  Li  Li3  1  -0.02482344  0.50000000  0.18885367  1
  C  C4  1  0.97688889  0.00000000  0.20743938  1
  C  C5  1  -0.02291007  -0.00000001  0.70733603  1
  Br  Br6  1  0.47758383  0.50000001  0.45957696  1
  Br  Br7  1  0.47744561  0.49999999  0.95958683  1
