# generated using pymatgen
data_NaSiCl2
_symmetry_space_group_name_H-M   'P 1'
_cell_length_a   5.17810725
_cell_length_b   5.17810714
_cell_length_c   6.71979579
_cell_angle_alpha   90.00004013
_cell_angle_beta   90.00003718
_cell_angle_gamma   90.00000116
_symmetry_Int_Tables_number   1
_chemical_formula_structural   NaSiCl2
_chemical_formula_sum   'Na2 Si2 Cl4'
_cell_volume   180.17650096
_cell_formula_units_Z   2
loop_
 _symmetry_equiv_pos_site_id
 _symmetry_equiv_pos_as_xyz
  1  'x, y, z'
loop_
 _atom_site_type_symbol
 _atom_site_label
 _atom_site_symmetry_multiplicity
 _atom_site_fract_x
 _atom_site_fract_y
 _atom_site_fract_z
 _atom_site_occupancy
  Na  Na0  1  0.00000027  0.00000024  0.39052286  1
  Na  Na1  1  0.00000017  0.00000018  0.89052287  1
  Si  Si2  1  0.50000218  0.50000138  0.14199667  1
  Si  Si3  1  0.49999996  0.50000107  0.64198924  1
  Cl  Cl4  1  -0.00000375  0.50000024  0.14168473  1
  Cl  Cl5  1  0.50000033  -0.00000194  0.14168476  1
  Cl  Cl6  1  0.50000000  -0.00000132  0.64168438  1
  Cl  Cl7  1  0.00000085  0.50000016  0.64168437  1
