# generated using pymatgen
data_K3ClO3
_symmetry_space_group_name_H-M   'P 1'
_cell_length_a   10.68127283
_cell_length_b   10.68097057
_cell_length_c   8.50626794
_cell_angle_alpha   90.00196637
_cell_angle_beta   89.99988081
_cell_angle_gamma   120.00178893
_symmetry_Int_Tables_number   1
_chemical_formula_structural   K3ClO3
_chemical_formula_sum   'K18 Cl6 O18'
_cell_volume   840.41846780
_cell_formula_units_Z   6
loop_
 _symmetry_equiv_pos_site_id
 _symmetry_equiv_pos_as_xyz
  1  'x, y, z'
loop_
 _atom_site_type_symbol
 _atom_site_label
 _atom_site_symmetry_multiplicity
 _atom_site_fract_x
 _atom_site_fract_y
 _atom_site_fract_z
 _atom_site_occupancy
  K  K0  1  0.46043312  0.38120525  0.47241463  1
  K  K1  1  0.92081443  0.53958712  0.47236930  1
  K  K2  1  0.61877869  0.07921808  0.47240233  1
  K  K3  1  0.28543317  0.87290322  0.30573762  1
  K  K4  1  0.12710164  0.41255021  0.30571390  1
  K  K5  1  0.58744636  0.71453560  0.30573594  1
  K  K6  1  0.12710456  0.71454678  0.80574311  1
  K  K7  1  0.58747493  0.87291179  0.80572092  1
  K  K8  1  0.28545342  0.41254514  0.80571995  1
  K  K9  1  0.95211619  0.20626471  0.63904939  1
  K  K10  1  0.79378121  0.74588775  0.63907604  1
  K  K11  1  0.25411200  0.04787954  0.63905890  1
  K  K12  1  0.79376949  0.04788083  0.13907175  1
  K  K13  1  0.25413767  0.20625487  0.13905716  1
  K  K14  1  0.95210972  0.74588356  0.13905993  1
  K  K15  1  0.61877214  0.53958416  0.97236443  1
  K  K16  1  0.46042737  0.07921261  0.97239054  1
  K  K17  1  0.92076915  0.38121336  0.97243091  1
  Cl  Cl18  1  -0.00000353  0.00000347  0.42855654  1
  Cl  Cl19  1  0.66665882  0.33332622  0.26188716  1
  Cl  Cl20  1  0.66667415  0.33333000  0.76188798  1
  Cl  Cl21  1  0.33333997  0.66667192  0.59522402  1
  Cl  Cl22  1  0.33333749  0.66667568  0.09521820  1
  Cl  Cl23  1  0.00000219  0.00000917  0.92855355  1
  O  O24  1  0.80766327  -0.03596084  0.43630617  1
  O  O25  1  0.03594732  0.84360520  0.43629814  1
  O  O26  1  0.15637893  0.19234792  0.43629176  1
  O  O27  1  0.47430709  0.17694018  0.26963254  1
  O  O28  1  0.82307433  0.29736585  0.26966432  1
  O  O29  1  0.70260940  0.52563156  0.26959840  1
  O  O30  1  0.47430823  0.29736658  0.76964533  1
  O  O31  1  0.70263520  0.17695107  0.76964121  1
  O  O32  1  0.82304680  0.52565365  0.76960685  1
  O  O33  1  0.14102150  0.51031538  0.60295169  1
  O  O34  1  0.48973796  0.63070357  0.60297020  1
  O  O35  1  0.36928592  0.85900784  0.60297083  1
  O  O36  1  0.14096131  0.63071659  0.10298133  1
  O  O37  1  0.36930541  0.51029657  0.10295412  1
  O  O38  1  0.48970417  0.85899116  0.10295852  1
  O  O39  1  0.80763670  0.84359649  0.93631630  1
  O  O40  1  0.15637182  -0.03595306  0.93629274  1
  O  O41  1  0.03596034  0.19234320  0.93628372  1
