# generated using pymatgen
data_LiBrO3
_symmetry_space_group_name_H-M   'P 1'
_cell_length_a   4.41777885
_cell_length_b   3.69157224
_cell_length_c   11.94089052
_cell_angle_alpha   91.17970628
_cell_angle_beta   88.07016173
_cell_angle_gamma   114.58999481
_symmetry_Int_Tables_number   1
_chemical_formula_structural   LiBrO3
_chemical_formula_sum   'Li2 Br2 O6'
_cell_volume   176.97245891
_cell_formula_units_Z   2
loop_
 _symmetry_equiv_pos_site_id
 _symmetry_equiv_pos_as_xyz
  1  'x, y, z'
loop_
 _atom_site_type_symbol
 _atom_site_label
 _atom_site_symmetry_multiplicity
 _atom_site_fract_x
 _atom_site_fract_y
 _atom_site_fract_z
 _atom_site_occupancy
  Li  Li0  1  0.06389353  -0.03674766  0.73245804  1
  Li  Li1  1  -0.04738737  0.03608487  0.26755841  1
  Br  Br2  1  0.63882012  0.24608642  0.60286678  1
  Br  Br3  1  0.37801699  0.75069354  0.39717908  1
  O  O4  1  0.06857521  -0.40499438  0.28732340  1
  O  O5  1  -0.29269550  -0.12385031  0.11678855  1
  O  O6  1  0.40410213  0.70634753  0.09756424  1
  O  O7  1  0.94819986  0.40452858  0.71268176  1
  O  O8  1  0.30927891  0.12473604  0.88329601  1
  O  O9  1  0.61252947  0.29711535  0.90228373  1
