# generated using pymatgen
data_Li6Br6N
_symmetry_space_group_name_H-M   'P 1'
_cell_length_a   11.31284953
_cell_length_b   11.31286454
_cell_length_c   7.07121590
_cell_angle_alpha   89.99999918
_cell_angle_beta   89.99999736
_cell_angle_gamma   120.03187923
_symmetry_Int_Tables_number   1
_chemical_formula_structural   Li6Br6N
_chemical_formula_sum   'Li12 Br12 N2'
_cell_volume   783.48326703
_cell_formula_units_Z   2
loop_
 _symmetry_equiv_pos_site_id
 _symmetry_equiv_pos_as_xyz
  1  'x, y, z'
loop_
 _atom_site_type_symbol
 _atom_site_label
 _atom_site_symmetry_multiplicity
 _atom_site_fract_x
 _atom_site_fract_y
 _atom_site_fract_z
 _atom_site_occupancy
  Li  Li0  1  0.16912374  0.83087633  0.74999999  1
  Li  Li1  1  0.66177343  0.83088411  0.75000146  1
  Li  Li2  1  0.16911583  0.33822685  0.74999856  1
  Li  Li3  1  0.83087633  0.16912349  0.24999997  1
  Li  Li4  1  0.33822672  0.16911579  0.24999864  1
  Li  Li5  1  0.83088395  0.66177289  0.25000139  1
  Li  Li6  1  0.16912369  0.83087642  0.25000001  1
  Li  Li7  1  0.66177331  0.83088399  0.24999843  1
  Li  Li8  1  0.16911583  0.33822675  0.25000154  1
  Li  Li9  1  0.83087623  0.16912362  0.75000004  1
  Li  Li10  1  0.33822638  0.16911563  0.75000146  1
  Li  Li11  1  0.83088403  0.66177302  0.74999850  1
  Br  Br12  1  0.32681963  0.99907996  0.49999988  1
  Br  Br13  1  0.99907971  0.32681966  -0.00000013  1
  Br  Br14  1  0.67318069  0.00091993  0.50000015  1
  Br  Br15  1  0.00092024  0.67318043  0.00000013  1
  Br  Br16  1  0.32771665  0.32673893  0.50000012  1
  Br  Br17  1  0.67326072  0.67228318  -0.00000012  1
  Br  Br18  1  0.67219829  0.99896217  0.00000015  1
  Br  Br19  1  0.00103746  0.32780184  0.49999985  1
  Br  Br20  1  0.67228329  0.67326090  0.49999989  1
  Br  Br21  1  0.32673881  0.32771628  0.00000011  1
  Br  Br22  1  0.32780173  0.00103766  -0.00000013  1
  Br  Br23  1  0.99896249  0.67219819  0.50000012  1
  N  N24  1  0.00000040  0.00000104  0.25000001  1
  N  N25  1  0.00000042  0.00000095  0.75000000  1
