# generated using pymatgen
data_K5PI3
_symmetry_space_group_name_H-M   'P 1'
_cell_length_a   8.75576902
_cell_length_b   8.75577085
_cell_length_c   8.39755463
_cell_angle_alpha   89.96976233
_cell_angle_beta   89.96961543
_cell_angle_gamma   120.00059628
_symmetry_Int_Tables_number   1
_chemical_formula_structural   K5PI3
_chemical_formula_sum   'K5 P1 I3'
_cell_volume   557.53135968
_cell_formula_units_Z   1
loop_
 _symmetry_equiv_pos_site_id
 _symmetry_equiv_pos_as_xyz
  1  'x, y, z'
loop_
 _atom_site_type_symbol
 _atom_site_label
 _atom_site_symmetry_multiplicity
 _atom_site_fract_x
 _atom_site_fract_y
 _atom_site_fract_z
 _atom_site_occupancy
  K  K0  1  0.33325625  0.66652038  0.46808286  1
  K  K1  1  0.66652020  0.33325656  0.46808286  1
  K  K2  1  0.28409318  0.28409311  0.00512172  1
  K  K3  1  0.71600590  0.00003417  0.00502294  1
  K  K4  1  0.00003424  0.71600575  0.00502306  1
  P  P5  1  0.00015862  0.00015826  0.77476938  1
  I  I6  1  -0.00005780  0.37526266  0.22919970  1
  I  I7  1  0.37526270  -0.00005771  0.22919961  1
  I  I8  1  0.62472673  0.62472682  0.22924785  1
