# generated using pymatgen
data_LiBr3Cl
_symmetry_space_group_name_H-M   'P 1'
_cell_length_a   5.14709968
_cell_length_b   5.14711602
_cell_length_c   5.14711986
_cell_angle_alpha   89.99999147
_cell_angle_beta   89.99999002
_cell_angle_gamma   90.00002970
_symmetry_Int_Tables_number   1
_chemical_formula_structural   LiBr3Cl
_chemical_formula_sum   'Li1 Br3 Cl1'
_cell_volume   136.36120126
_cell_formula_units_Z   1
loop_
 _symmetry_equiv_pos_site_id
 _symmetry_equiv_pos_as_xyz
  1  'x, y, z'
loop_
 _atom_site_type_symbol
 _atom_site_label
 _atom_site_symmetry_multiplicity
 _atom_site_fract_x
 _atom_site_fract_y
 _atom_site_fract_z
 _atom_site_occupancy
  Li  Li0  1  0.00000000  -0.00000001  0.00000000  1
  Br  Br1  1  0.00000000  0.49999998  -0.00000000  1
  Br  Br2  1  0.50000000  -0.00000001  0.00000001  1
  Br  Br3  1  0.00000001  -0.00000001  0.50000000  1
  Cl  Cl4  1  0.49999998  0.50000006  0.49999999  1
