# generated using pymatgen
data_Li3Cl12O
_symmetry_space_group_name_H-M   'P 1'
_cell_length_a   11.26463464
_cell_length_b   11.26454447
_cell_length_c   11.26467075
_cell_angle_alpha   90.00002204
_cell_angle_beta   89.99996113
_cell_angle_gamma   90.00002828
_symmetry_Int_Tables_number   1
_chemical_formula_structural   Li3Cl12O
_chemical_formula_sum   'Li12 Cl48 O4'
_cell_volume   1429.38508688
_cell_formula_units_Z   4
loop_
 _symmetry_equiv_pos_site_id
 _symmetry_equiv_pos_as_xyz
  1  'x, y, z'
loop_
 _atom_site_type_symbol
 _atom_site_label
 _atom_site_symmetry_multiplicity
 _atom_site_fract_x
 _atom_site_fract_y
 _atom_site_fract_z
 _atom_site_occupancy
  Li  Li0  1  0.49999514  0.50000426  0.50000001  1
  Li  Li1  1  0.00000493  0.49999252  -0.00000180  1
  Li  Li2  1  -0.00000477  -0.00000404  0.50000274  1
  Li  Li3  1  0.50000466  0.00000731  -0.00000095  1
  Li  Li4  1  0.75000025  0.75000433  0.74999261  1
  Li  Li5  1  0.25000094  0.74999580  0.25000697  1
  Li  Li6  1  0.24999931  0.25000343  0.75000152  1
  Li  Li7  1  0.25000079  0.25000420  0.24999853  1
  Li  Li8  1  0.74999919  0.24999740  0.24999840  1
  Li  Li9  1  0.75000068  0.24999570  0.75000158  1
  Li  Li10  1  0.74999904  0.75000261  0.25000738  1
  Li  Li11  1  0.24999973  0.74999659  0.74999302  1
  Cl  Cl12  1  0.26244057  0.49999988  0.15220120  1
  Cl  Cl13  1  0.65219678  0.26244111  0.00000031  1
  Cl  Cl14  1  0.49999975  0.65219617  0.76244454  1
  Cl  Cl15  1  0.73755426  0.50000001  0.84779094  1
  Cl  Cl16  1  0.49999983  0.34780371  0.23755930  1
  Cl  Cl17  1  0.34779466  0.73755615  0.00000020  1
  Cl  Cl18  1  0.49999976  0.34780337  0.76244065  1
  Cl  Cl19  1  0.34780332  0.26243772  0.00000056  1
  Cl  Cl20  1  0.26244133  0.50000004  0.84779830  1
  Cl  Cl21  1  0.65220536  0.73755260  -0.00000005  1
  Cl  Cl22  1  0.73755521  0.49999985  0.15220734  1
  Cl  Cl23  1  0.49999982  0.65219531  0.23755523  1
  Cl  Cl24  1  0.00000031  0.65220301  0.26243904  1
  Cl  Cl25  1  0.15220119  0.26243970  0.49999987  1
  Cl  Cl26  1  0.00000011  0.34779853  0.73755843  1
  Cl  Cl27  1  0.84780676  0.73756094  0.49999980  1
  Cl  Cl28  1  0.76244433  0.50000059  0.65220967  1
  Cl  Cl29  1  0.23755957  0.50000042  0.34779826  1
  Cl  Cl30  1  0.00000008  0.34779619  0.26244348  1
  Cl  Cl31  1  0.84779850  0.26244327  0.50000013  1
  Cl  Cl32  1  0.76244474  0.50000041  0.34779209  1
  Cl  Cl33  1  0.15219377  0.73756425  0.49999953  1
  Cl  Cl34  1  0.23756001  0.50000060  0.65220221  1
  Cl  Cl35  1  0.00000034  0.65220152  0.73756252  1
  Cl  Cl36  1  0.50000034  0.15219495  0.26244241  1
  Cl  Cl37  1  0.50000018  0.84780476  0.73756204  1
  Cl  Cl38  1  0.26244526  -0.00000060  0.65220799  1
  Cl  Cl39  1  0.65219297  0.76243623  0.49999999  1
  Cl  Cl40  1  0.34779924  0.23755621  0.49999960  1
  Cl  Cl41  1  0.73755963  -0.00000044  0.34779869  1
  Cl  Cl42  1  0.50000011  0.84780590  0.26243816  1
  Cl  Cl43  1  0.26244465  -0.00000043  0.34779203  1
  Cl  Cl44  1  0.50000040  0.15219566  0.73755763  1
  Cl  Cl45  1  0.34780655  0.76243986  0.49999998  1
  Cl  Cl46  1  0.65220115  0.23755953  0.49999960  1
  Cl  Cl47  1  0.73755894  -0.00000060  0.65220107  1
  Cl  Cl48  1  -0.00000030  0.15219983  0.76243991  1
  Cl  Cl49  1  0.15220560  0.76244734  0.00000030  1
  Cl  Cl50  1  0.76244025  0.00000015  0.15220031  1
  Cl  Cl51  1  0.23755615  -0.00000005  0.84779295  1
  Cl  Cl52  1  -0.00000020  0.84779899  0.23755438  1
  Cl  Cl53  1  0.84780290  0.23756230  -0.00000006  1
  Cl  Cl54  1  -0.00000029  0.84780016  0.76244414  1
  Cl  Cl55  1  0.84779432  0.76244400  0.00000032  1
  Cl  Cl56  1  0.15219697  0.23755875  -0.00000007  1
  Cl  Cl57  1  0.23755553  0.00000013  0.15220704  1
  Cl  Cl58  1  0.76243963  -0.00000003  0.84779992  1
  Cl  Cl59  1  -0.00000021  0.15220186  0.23755816  1
  O  O60  1  0.50000269  0.50000394  0.00000011  1
  O  O61  1  -0.00000265  0.49999764  0.49999890  1
  O  O62  1  0.49999736  0.00000243  0.49999971  1
  O  O63  1  0.00000257  -0.00000394  0.00000125  1
