# generated using pymatgen
data_LiBCl3
_symmetry_space_group_name_H-M   'P 1'
_cell_length_a   10.45226894
_cell_length_b   4.06846216
_cell_length_c   4.42045534
_cell_angle_alpha   90.00000438
_cell_angle_beta   89.99969084
_cell_angle_gamma   89.99997711
_symmetry_Int_Tables_number   1
_chemical_formula_structural   LiBCl3
_chemical_formula_sum   'Li2 B2 Cl6'
_cell_volume   187.97836356
_cell_formula_units_Z   2
loop_
 _symmetry_equiv_pos_site_id
 _symmetry_equiv_pos_as_xyz
  1  'x, y, z'
loop_
 _atom_site_type_symbol
 _atom_site_label
 _atom_site_symmetry_multiplicity
 _atom_site_fract_x
 _atom_site_fract_y
 _atom_site_fract_z
 _atom_site_occupancy
  Li  Li0  1  -0.00000000  0.50000000  0.49999978  1
  Li  Li1  1  0.50000000  0.00000000  -0.00000025  1
  B  B2  1  -0.00000000  0.00000001  0.00001412  1
  B  B3  1  0.50000000  0.50000004  0.50001573  1
  Cl  Cl4  1  0.85365612  -0.00081137  0.49999468  1
  Cl  Cl5  1  0.14634388  0.00081136  0.49999337  1
  Cl  Cl6  1  0.00000000  0.49999998  -0.00000199  1
  Cl  Cl7  1  0.35365614  0.50081189  -0.00000823  1
  Cl  Cl8  1  0.64634386  0.49918810  -0.00000499  1
  Cl  Cl9  1  0.50000000  -0.00000003  0.49999778  1
