# generated using pymatgen
data_KB3S10
_symmetry_space_group_name_H-M   'P 1'
_cell_length_a   12.90611897
_cell_length_b   12.62832649
_cell_length_c   7.35915888
_cell_angle_alpha   83.34374678
_cell_angle_beta   89.68050923
_cell_angle_gamma   130.99938275
_symmetry_Int_Tables_number   1
_chemical_formula_structural   KB3S10
_chemical_formula_sum   'K2 B6 S20'
_cell_volume   893.77167873
_cell_formula_units_Z   2
loop_
 _symmetry_equiv_pos_site_id
 _symmetry_equiv_pos_as_xyz
  1  'x, y, z'
loop_
 _atom_site_type_symbol
 _atom_site_label
 _atom_site_symmetry_multiplicity
 _atom_site_fract_x
 _atom_site_fract_y
 _atom_site_fract_z
 _atom_site_occupancy
  K  K0  1  0.34249369  0.19492631  0.26755941  1
  K  K1  1  0.11246232  0.24822111  0.65995299  1
  B  B2  1  0.02885268  0.71806561  0.22891638  1
  B  B3  1  0.25867095  0.45207681  0.17585325  1
  B  B4  1  0.74473099  -0.00895532  0.29098254  1
  B  B5  1  0.78475100  0.16607467  0.52083139  1
  B  B6  1  0.35955390  0.13748769  0.79447889  1
  B  B7  1  -0.11262361  0.65481099  0.93838022  1
  S  S8  1  -0.14521671  0.58972882  0.19874470  1
  S  S9  1  0.41599238  0.76113056  0.22711368  1
  S  S10  1  0.74678457  0.04690803  0.04485074  1
  S  S11  1  0.61378511  0.83141525  0.15708550  1
  S  S12  1  0.35251903  0.44442434  0.33463747  1
  S  S13  1  0.29971420  0.61792970  0.05486431  1
  S  S14  1  0.04362970  0.11620966  0.15290133  1
  S  S15  1  0.09736749  0.31190542  0.07814110  1
  S  S16  1  0.19302591  0.83575111  0.25300259  1
  S  S17  1  0.89523199  0.01630823  0.37742082  1
  S  S18  1  0.64767541  -0.00731947  0.48834548  1
  S  S19  1  0.62976800  0.30003930  0.99209557  1
  S  S20  1  -0.05643906  0.59824252  0.77039790  1
  S  S21  1  0.73611069  0.49583519  0.80884281  1
  S  S22  1  0.34696534  0.26003720  0.84040292  1
  S  S23  1  0.51040671  0.14712337  0.83187592  1
  S  S24  1  0.06132270  -0.06453472  0.65082875  1
  S  S25  1  0.24258378  -0.02571307  0.68625295  1
  S  S26  1  0.91052585  0.32833855  0.55643444  1
  S  S27  1  0.93935497  0.83353214  0.90022076  1
