# generated using pymatgen
data_LiBrO
_symmetry_space_group_name_H-M   'P 1'
_cell_length_a   4.70778345
_cell_length_b   4.81215620
_cell_length_c   11.46615530
_cell_angle_alpha   98.93235180
_cell_angle_beta   89.99988223
_cell_angle_gamma   90.00048988
_symmetry_Int_Tables_number   1
_chemical_formula_structural   LiBrO
_chemical_formula_sum   'Li4 Br4 O4'
_cell_volume   256.61074889
_cell_formula_units_Z   4
loop_
 _symmetry_equiv_pos_site_id
 _symmetry_equiv_pos_as_xyz
  1  'x, y, z'
loop_
 _atom_site_type_symbol
 _atom_site_label
 _atom_site_symmetry_multiplicity
 _atom_site_fract_x
 _atom_site_fract_y
 _atom_site_fract_z
 _atom_site_occupancy
  Li  Li0  1  0.60670735  0.26143146  0.57289563  1
  Li  Li1  1  -0.10670415  0.76142970  0.07289704  1
  Li  Li2  1  0.26095424  0.53482887  0.32978123  1
  Li  Li3  1  0.23904374  0.03481997  0.82977785  1
  Br  Br4  1  0.54410296  0.00111340  0.25829217  1
  Br  Br5  1  0.08156418  -0.03507330  0.51780509  1
  Br  Br6  1  -0.04410195  0.50110645  0.75829350  1
  Br  Br7  1  0.41842968  0.46492706  0.01780710  1
  O  O8  1  0.12813403  0.66768919  0.19527614  1
  O  O9  1  0.38482749  0.32002006  0.44158631  1
  O  O10  1  0.37186546  0.16768881  0.69527430  1
  O  O11  1  0.11517697  -0.17998167  -0.05841224  1
