# generated using pymatgen
data_Na3CI4
_symmetry_space_group_name_H-M   'P 1'
_cell_length_a   7.88524490
_cell_length_b   7.88524316
_cell_length_c   8.85494818
_cell_angle_alpha   89.98898826
_cell_angle_beta   89.99977746
_cell_angle_gamma   89.99958293
_symmetry_Int_Tables_number   1
_chemical_formula_structural   Na3CI4
_chemical_formula_sum   'Na6 C2 I8'
_cell_volume   550.57475318
_cell_formula_units_Z   2
loop_
 _symmetry_equiv_pos_site_id
 _symmetry_equiv_pos_as_xyz
  1  'x, y, z'
loop_
 _atom_site_type_symbol
 _atom_site_label
 _atom_site_symmetry_multiplicity
 _atom_site_fract_x
 _atom_site_fract_y
 _atom_site_fract_z
 _atom_site_occupancy
  Na  Na0  1  0.49999519  0.50000393  -0.00000095  1
  Na  Na1  1  0.00001728  -0.00000367  0.49999982  1
  Na  Na2  1  0.49997561  -0.00001524  0.74999926  1
  Na  Na3  1  0.49997542  0.00000422  0.24999919  1
  Na  Na4  1  0.00000670  0.50001538  0.74999933  1
  Na  Na5  1  0.00000733  0.49999498  0.24999929  1
  C  C6  1  0.50020800  0.49997609  0.49999925  1
  C  C7  1  0.00005177  0.00002930  0.00000023  1
  I  I8  1  0.27331906  0.27332005  0.41370144  1
  I  I9  1  0.77334157  0.77334451  0.91370808  1
  I  I10  1  0.22662024  0.22662312  0.91372146  1
  I  I11  1  0.72659816  0.72659918  0.41372802  1
  I  I12  1  0.27330850  0.72668981  0.58630276  1
  I  I13  1  0.22663356  0.77336392  0.08628351  1
  I  I14  1  0.77335497  0.22664262  0.08628921  1
  I  I15  1  0.72658665  0.27341181  0.58627010  1
