# generated using pymatgen
data_Li3PCl5
_symmetry_space_group_name_H-M   'P 1'
_cell_length_a   9.52739264
_cell_length_b   9.51694927
_cell_length_c   9.96398452
_cell_angle_alpha   90.19705310
_cell_angle_beta   88.60204719
_cell_angle_gamma   89.78119418
_symmetry_Int_Tables_number   1
_chemical_formula_structural   Li3PCl5
_chemical_formula_sum   'Li12 P4 Cl20'
_cell_volume   903.17041336
_cell_formula_units_Z   4
loop_
 _symmetry_equiv_pos_site_id
 _symmetry_equiv_pos_as_xyz
  1  'x, y, z'
loop_
 _atom_site_type_symbol
 _atom_site_label
 _atom_site_symmetry_multiplicity
 _atom_site_fract_x
 _atom_site_fract_y
 _atom_site_fract_z
 _atom_site_occupancy
  Li  Li0  1  0.52969637  0.00922061  0.07654366  1
  Li  Li1  1  0.64176955  0.69793716  0.08674801  1
  Li  Li2  1  0.42322546  0.32009886  0.10017358  1
  Li  Li3  1  0.53735834  0.00344235  0.40469477  1
  Li  Li4  1  0.84764271  -0.10652206  0.38771111  1
  Li  Li5  1  0.22385912  0.11128256  0.39874443  1
  Li  Li6  1  0.02874148  0.48970965  0.58052585  1
  Li  Li7  1  -0.07714973  0.18030606  0.60992925  1
  Li  Li8  1  0.13790545  0.80479516  0.58859750  1
  Li  Li9  1  0.04207064  0.50833878  -0.09862809  1
  Li  Li10  1  0.35656375  0.60323373  0.88062785  1
  Li  Li11  1  0.75807631  0.35628977  0.94455185  1
  P  P12  1  0.27579413  0.09432657  0.82582359  1
  P  P13  1  0.12785324  0.72595689  0.18155695  1
  P  P14  1  0.77952915  0.40351088  0.32340562  1
  P  P15  1  0.61954447  0.77716998  0.68156371  1
  Cl  Cl16  1  0.90713116  0.36301506  0.75869018  1
  Cl  Cl17  1  0.43633344  0.79621291  -0.00567348  1
  Cl  Cl18  1  0.56440083  0.21127245  0.93457549  1
  Cl  Cl19  1  0.18107039  0.61857968  0.72702215  1
  Cl  Cl20  1  0.73611396  0.05507482  0.53433313  1
  Cl  Cl21  1  0.33121141  0.94316204  0.53246952  1
  Cl  Cl22  1  0.29270200  0.26559562  0.70513955  1
  Cl  Cl23  1  0.07316394  0.01680235  0.77688677  1
  Cl  Cl24  1  0.57728289  0.56500642  0.73099519  1
  Cl  Cl25  1  0.76742574  0.82881620  0.81820961  1
  Cl  Cl26  1  0.67599648  0.88280929  0.23055187  1
  Cl  Cl27  1  0.93500786  0.70084712  0.49539349  1
  Cl  Cl28  1  0.05807524  0.28660665  0.43852107  1
  Cl  Cl29  1  0.40732186  0.14046089  0.24986590  1
  Cl  Cl30  1  0.84246864  0.56522526  0.03889254  1
  Cl  Cl31  1  0.23788362  0.45468128  0.03548687  1
  Cl  Cl32  1  0.57818604  0.48065729  0.27048677  1
  Cl  Cl33  1  0.07152256  0.93747051  0.24021632  1
  Cl  Cl34  1  0.80310781  0.23556374  0.19446880  1
  Cl  Cl35  1  0.27111370  0.67304345  0.32089862  1
