# generated using pymatgen
data_LiBr6N
_symmetry_space_group_name_H-M   'P 1'
_cell_length_a   6.94762422
_cell_length_b   6.30092013
_cell_length_c   8.05681146
_cell_angle_alpha   95.49336811
_cell_angle_beta   106.27910320
_cell_angle_gamma   127.54712525
_symmetry_Int_Tables_number   1
_chemical_formula_structural   LiBr6N
_chemical_formula_sum   'Li1 Br6 N1'
_cell_volume   251.42376548
_cell_formula_units_Z   1
loop_
 _symmetry_equiv_pos_site_id
 _symmetry_equiv_pos_as_xyz
  1  'x, y, z'
loop_
 _atom_site_type_symbol
 _atom_site_label
 _atom_site_symmetry_multiplicity
 _atom_site_fract_x
 _atom_site_fract_y
 _atom_site_fract_z
 _atom_site_occupancy
  Li  Li0  1  0.09892635  0.06963305  -0.04758245  1
  Br  Br1  1  0.77397425  0.70170564  0.43970163  1
  Br  Br2  1  0.12793774  0.22757017  0.67825446  1
  Br  Br3  1  0.10436224  0.45339317  0.13885169  1
  Br  Br4  1  0.53900854  -0.10314230  0.82148879  1
  Br  Br5  1  0.45462117  0.17804172  0.24480755  1
  Br  Br6  1  0.81209146  0.49876880  0.76921704  1
  N  N7  1  0.75574491  0.30736308  -0.04473871  1
