# generated using pymatgen
data_KICl
_symmetry_space_group_name_H-M   'P 1'
_cell_length_a   7.72221432
_cell_length_b   7.71280833
_cell_length_c   5.72480805
_cell_angle_alpha   90.37077678
_cell_angle_beta   89.63063844
_cell_angle_gamma   135.02301327
_symmetry_Int_Tables_number   1
_chemical_formula_structural   KICl
_chemical_formula_sum   'K2 I2 Cl2'
_cell_volume   240.99897870
_cell_formula_units_Z   2
loop_
 _symmetry_equiv_pos_site_id
 _symmetry_equiv_pos_as_xyz
  1  'x, y, z'
loop_
 _atom_site_type_symbol
 _atom_site_label
 _atom_site_symmetry_multiplicity
 _atom_site_fract_x
 _atom_site_fract_y
 _atom_site_fract_z
 _atom_site_occupancy
  K  K0  1  0.25939439  0.74336601  0.25015382  1
  K  K1  1  0.74060512  0.25663398  0.74995309  1
  I  I2  1  -0.02611637  0.02777309  0.25041726  1
  I  I3  1  0.02611665  -0.02777368  0.74936690  1
  Cl  Cl4  1  0.68777525  0.31508619  0.25097537  1
  Cl  Cl5  1  0.31222496  0.68491442  0.74913356  1
