# generated using pymatgen
data_LiS2Cl
_symmetry_space_group_name_H-M   'P 1'
_cell_length_a   6.82077127
_cell_length_b   6.82077963
_cell_length_c   8.97540002
_cell_angle_alpha   90.00000073
_cell_angle_beta   89.99999951
_cell_angle_gamma   90.00021054
_symmetry_Int_Tables_number   1
_chemical_formula_structural   LiS2Cl
_chemical_formula_sum   'Li4 S8 Cl4'
_cell_volume   417.56233550
_cell_formula_units_Z   4
loop_
 _symmetry_equiv_pos_site_id
 _symmetry_equiv_pos_as_xyz
  1  'x, y, z'
loop_
 _atom_site_type_symbol
 _atom_site_label
 _atom_site_symmetry_multiplicity
 _atom_site_fract_x
 _atom_site_fract_y
 _atom_site_fract_z
 _atom_site_occupancy
  Li  Li0  1  -0.00000000  -0.00000000  0.50000001  1
  Li  Li1  1  0.50000000  0.50000000  0.50000001  1
  Li  Li2  1  0.50000000  0.50000000  -0.00000001  1
  Li  Li3  1  -0.00000000  0.00000000  -0.00000001  1
  S  S4  1  -0.00000000  0.50000000  0.89297959  1
  S  S5  1  0.50000000  -0.00000000  0.60736327  1
  S  S6  1  0.00000000  0.50000000  0.60703061  1
  S  S7  1  0.50000001  0.00000000  0.89265254  1
  S  S8  1  -0.00000001  0.50000000  0.10702018  1
  S  S9  1  0.50000000  -0.00000000  0.39263736  1
  S  S10  1  -0.00000000  0.50000000  0.39296961  1
  S  S11  1  0.50000000  0.00000000  0.10734682  1
  Cl  Cl12  1  0.00000000  0.00000000  0.74999688  1
  Cl  Cl13  1  0.50000000  0.50000000  0.74999687  1
  Cl  Cl14  1  0.50000000  0.50000000  0.25000314  1
  Cl  Cl15  1  -0.00000000  0.00000000  0.25000312  1
