# generated using pymatgen
data_Li9I3Br2
_symmetry_space_group_name_H-M   'P 1'
_cell_length_a   8.17716072
_cell_length_b   6.82663417
_cell_length_c   6.41388077
_cell_angle_alpha   97.60131014
_cell_angle_beta   97.41345100
_cell_angle_gamma   93.77627076
_symmetry_Int_Tables_number   1
_chemical_formula_structural   Li9I3Br2
_chemical_formula_sum   'Li9 I3 Br2'
_cell_volume   350.67115968
_cell_formula_units_Z   1
loop_
 _symmetry_equiv_pos_site_id
 _symmetry_equiv_pos_as_xyz
  1  'x, y, z'
loop_
 _atom_site_type_symbol
 _atom_site_label
 _atom_site_symmetry_multiplicity
 _atom_site_fract_x
 _atom_site_fract_y
 _atom_site_fract_z
 _atom_site_occupancy
  Li  Li0  1  0.32423443  0.25030520  0.31692825  1
  Li  Li1  1  0.70819692  0.74506825  0.67134853  1
  Li  Li2  1  0.27998341  0.72309161  0.32002436  1
  Li  Li3  1  0.17900693  0.75982593  0.80381220  1
  Li  Li4  1  0.15095393  0.30496276  0.84292190  1
  Li  Li5  1  0.91721658  0.60516878  0.09209671  1
  Li  Li6  1  0.67985124  0.28840610  0.72768852  1
  Li  Li7  1  0.72756174  0.25700852  0.17675497  1
  Li  Li8  1  0.49417624  0.54651362  0.02407385  1
  I  I9  1  -0.07312245  0.48717412  0.52853696  1
  I  I10  1  0.58973209  -0.02853578  0.36338173  1
  I  I11  1  -0.07794934  -0.00108666  -0.02767107  1
  Br  Br12  1  0.17769526  0.01757276  0.53898555  1
  Br  Br13  1  0.42246301  0.54452479  0.62111754  1
