# generated using pymatgen
data_Li2I2O5
_symmetry_space_group_name_H-M   'P 1'
_cell_length_a   3.80076059
_cell_length_b   3.80071893
_cell_length_c   10.65148329
_cell_angle_alpha   90.00299609
_cell_angle_beta   89.99689537
_cell_angle_gamma   89.99930073
_symmetry_Int_Tables_number   1
_chemical_formula_structural   Li2I2O5
_chemical_formula_sum   'Li2 I2 O5'
_cell_volume   153.86730850
_cell_formula_units_Z   1
loop_
 _symmetry_equiv_pos_site_id
 _symmetry_equiv_pos_as_xyz
  1  'x, y, z'
loop_
 _atom_site_type_symbol
 _atom_site_label
 _atom_site_symmetry_multiplicity
 _atom_site_fract_x
 _atom_site_fract_y
 _atom_site_fract_z
 _atom_site_occupancy
  Li  Li0  1  0.49999364  0.49999409  -0.00000111  1
  Li  Li1  1  0.49999653  0.49999591  0.49999874  1
  I  I2  1  0.00000368  0.49993670  0.76295000  1
  I  I3  1  0.49993498  0.00000364  0.23705410  1
  O  O4  1  0.00001160  0.50009971  -0.04556779  1
  O  O5  1  0.50010595  0.00001110  0.04556156  1
  O  O6  1  -0.00008361  -0.00007817  -0.00000089  1
  O  O7  1  0.00002884  0.00000836  0.56593794  1
  O  O8  1  0.00000841  0.00002867  0.43406745  1
