# generated using pymatgen
data_Li3P22N3
_symmetry_space_group_name_H-M   'P 1'
_cell_length_a   7.66543668
_cell_length_b   8.28732298
_cell_length_c   9.63776234
_cell_angle_alpha   81.00185758
_cell_angle_beta   95.20166663
_cell_angle_gamma   116.64488974
_symmetry_Int_Tables_number   1
_chemical_formula_structural   Li3P22N3
_chemical_formula_sum   'Li3 P22 N3'
_cell_volume   540.34862133
_cell_formula_units_Z   1
loop_
 _symmetry_equiv_pos_site_id
 _symmetry_equiv_pos_as_xyz
  1  'x, y, z'
loop_
 _atom_site_type_symbol
 _atom_site_label
 _atom_site_symmetry_multiplicity
 _atom_site_fract_x
 _atom_site_fract_y
 _atom_site_fract_z
 _atom_site_occupancy
  Li  Li0  1  0.13147701  0.25793216  -0.03901539  1
  Li  Li1  1  -0.11322320  -0.06221680  0.74778152  1
  Li  Li2  1  -0.18728499  -0.11989853  0.46792231  1
  P  P3  1  0.52610670  0.54873758  0.14971483  1
  P  P4  1  0.48585857  0.50078258  0.93363935  1
  P  P5  1  0.30919354  -0.17709507  0.89099429  1
  P  P6  1  0.46854195  -0.00601320  0.05671981  1
  P  P7  1  -0.10279540  0.41510130  0.10601363  1
  P  P8  1  0.04359203  0.54041177  0.91306613  1
  P  P9  1  0.76476849  0.35857341  0.64829104  1
  P  P10  1  0.89610042  0.62802204  0.72021586  1
  P  P11  1  -0.00284509  0.26330532  0.69183095  1
  P  P12  1  0.27003001  0.01967265  0.73209844  1
  P  P13  1  0.39947437  0.71828477  0.57117535  1
  P  P14  1  0.53096363  0.76267615  0.81700224  1
  P  P15  1  0.16304258  0.80646717  0.59677613  1
  P  P16  1  0.32131967  0.41510621  0.62499924  1
  P  P17  1  0.70108562  0.34730237  0.41503312  1
  P  P18  1  0.27934450  0.06688604  0.15935587  1
  P  P19  1  0.87811986  0.19495019  0.40136143  1
  P  P20  1  0.82637007  0.57575758  0.22934682  1
  P  P21  1  0.27776845  0.65774766  0.33748870  1
  P  P22  1  0.18884052  0.35895606  0.32774272  1
  P  P23  1  0.11496127  0.81687307  0.29371740  1
  P  P24  1  0.54726956  0.80315527  0.21620319  1
  N  N25  1  0.31704561  0.34790968  0.47354829  1
  N  N26  1  0.05983996  0.84695280  0.44597454  1
  N  N27  1  0.90503431  0.11365979  0.57100218  1
