# generated using pymatgen
data_LiBBr2
_symmetry_space_group_name_H-M   'P 1'
_cell_length_a   7.45213088
_cell_length_b   7.87227916
_cell_length_c   3.72004190
_cell_angle_alpha   89.99998377
_cell_angle_beta   90.00000339
_cell_angle_gamma   90.00000808
_symmetry_Int_Tables_number   1
_chemical_formula_structural   LiBBr2
_chemical_formula_sum   'Li2 B2 Br4'
_cell_volume   218.23720534
_cell_formula_units_Z   2
loop_
 _symmetry_equiv_pos_site_id
 _symmetry_equiv_pos_as_xyz
  1  'x, y, z'
loop_
 _atom_site_type_symbol
 _atom_site_label
 _atom_site_symmetry_multiplicity
 _atom_site_fract_x
 _atom_site_fract_y
 _atom_site_fract_z
 _atom_site_occupancy
  Li  Li0  1  -0.00000006  0.50000002  -0.00000002  1
  Li  Li1  1  0.50000011  -0.00000001  0.00000002  1
  B  B2  1  0.50000010  0.49999998  0.00000000  1
  B  B3  1  -0.00000000  0.00000002  -0.00000006  1
  Br  Br4  1  0.75104113  0.50000001  0.50000006  1
  Br  Br5  1  0.25103983  -0.00000001  0.50000012  1
  Br  Br6  1  0.24896008  0.50000000  0.49999991  1
  Br  Br7  1  0.74895881  -0.00000000  0.49999996  1
