# generated using pymatgen
data_Li4PBr
_symmetry_space_group_name_H-M   'P 1'
_cell_length_a   8.65735602
_cell_length_b   11.41697469
_cell_length_c   8.52952365
_cell_angle_alpha   89.99991541
_cell_angle_beta   89.99996846
_cell_angle_gamma   90.00973002
_symmetry_Int_Tables_number   1
_chemical_formula_structural   Li4PBr
_chemical_formula_sum   'Li32 P8 Br8'
_cell_volume   843.06505364
_cell_formula_units_Z   8
loop_
 _symmetry_equiv_pos_site_id
 _symmetry_equiv_pos_as_xyz
  1  'x, y, z'
loop_
 _atom_site_type_symbol
 _atom_site_label
 _atom_site_symmetry_multiplicity
 _atom_site_fract_x
 _atom_site_fract_y
 _atom_site_fract_z
 _atom_site_occupancy
  Li  Li0  1  0.47934923  0.12502315  0.77493629  1
  Li  Li1  1  0.52065199  0.87497775  0.77493635  1
  Li  Li2  1  0.47934897  0.62502296  0.27493619  1
  Li  Li3  1  0.52065110  0.37497778  0.27493708  1
  Li  Li4  1  -0.02054084  0.37487980  0.23859290  1
  Li  Li5  1  0.27050225  0.62480048  0.48851823  1
  Li  Li6  1  -0.02054088  0.87487921  0.73859271  1
  Li  Li7  1  0.27050256  0.12480020  0.98851907  1
  Li  Li8  1  0.27058172  0.87501586  0.02500236  1
  Li  Li9  1  0.22941933  0.62498306  0.02500453  1
  Li  Li10  1  0.27058100  0.37501619  0.52500313  1
  Li  Li11  1  0.22942032  0.12498249  0.52500514  1
  Li  Li12  1  0.52053975  0.12512122  0.23859312  1
  Li  Li13  1  0.22949709  0.87519880  0.48852023  1
  Li  Li14  1  0.52053996  0.62512169  0.73859282  1
  Li  Li15  1  0.22949611  0.37519873  0.98852075  1
  Li  Li16  1  -0.02065040  0.12502302  0.27493637  1
  Li  Li17  1  0.02065205  0.87497795  0.27493630  1
  Li  Li18  1  -0.02065088  0.62502315  0.77493640  1
  Li  Li19  1  0.02065147  0.37497763  0.77493690  1
  Li  Li20  1  0.47945928  0.37487980  0.73859292  1
  Li  Li21  1  0.77050267  0.62480032  0.98851829  1
  Li  Li22  1  0.47945978  0.87487893  0.23859271  1
  Li  Li23  1  0.77050299  0.12480037  0.48851904  1
  Li  Li24  1  0.77058120  0.87501624  0.52500225  1
  Li  Li25  1  0.72941952  0.62498288  0.52500491  1
  Li  Li26  1  0.77058103  0.37501633  0.02500278  1
  Li  Li27  1  0.72941937  0.12498318  0.02500504  1
  Li  Li28  1  0.02053950  0.62512186  0.23859258  1
  Li  Li29  1  0.72949636  0.37519873  0.48852117  1
  Li  Li30  1  0.02054010  0.12512133  0.73859273  1
  Li  Li31  1  0.72949678  0.87519897  0.98852012  1
  P  P32  1  0.49999963  0.49999954  0.50686088  1
  P  P33  1  0.00000007  0.00000037  0.50686085  1
  P  P34  1  -0.00000019  0.49999948  0.00686119  1
  P  P35  1  0.49999975  0.00000040  0.00686110  1
  P  P36  1  0.75000007  0.75000035  0.75685915  1
  P  P37  1  0.25000012  0.25000042  0.75685930  1
  P  P38  1  0.25000016  0.75000031  0.25685876  1
  P  P39  1  0.74999996  0.25000043  0.25685893  1
  Br  Br40  1  0.50000024  -0.00000023  0.50676500  1
  Br  Br41  1  0.49999967  0.49999991  0.00676502  1
  Br  Br42  1  0.25000021  0.74999986  0.75676551  1
  Br  Br43  1  0.24999995  0.24999960  0.25676555  1
  Br  Br44  1  0.00000000  -0.00000010  0.00676515  1
  Br  Br45  1  -0.00000034  0.50000006  0.50676492  1
  Br  Br46  1  0.75000019  0.74999987  0.25676536  1
  Br  Br47  1  0.75000004  0.24999968  0.75676543  1
