# generated using pymatgen
data_LiSiS2
_symmetry_space_group_name_H-M   'P 1'
_cell_length_a   4.81663498
_cell_length_b   4.81663511
_cell_length_c   5.45679413
_cell_angle_alpha   90.00001308
_cell_angle_beta   90.00001009
_cell_angle_gamma   89.99999981
_symmetry_Int_Tables_number   1
_chemical_formula_structural   LiSiS2
_chemical_formula_sum   'Li2 Si2 S4'
_cell_volume   126.59747734
_cell_formula_units_Z   2
loop_
 _symmetry_equiv_pos_site_id
 _symmetry_equiv_pos_as_xyz
  1  'x, y, z'
loop_
 _atom_site_type_symbol
 _atom_site_label
 _atom_site_symmetry_multiplicity
 _atom_site_fract_x
 _atom_site_fract_y
 _atom_site_fract_z
 _atom_site_occupancy
  Li  Li0  1  0.00000001  -0.00000000  0.00000000  1
  Li  Li1  1  -0.00000002  0.00000000  0.50000000  1
  Si  Si2  1  0.50000000  0.50000000  -0.00000000  1
  Si  Si3  1  0.50000000  0.50000000  0.50000000  1
  S  S4  1  0.50000000  0.00000001  0.24980399  1
  S  S5  1  0.50000001  -0.00000001  0.75019602  1
  S  S6  1  -0.00000000  0.50000000  0.25019601  1
  S  S7  1  0.00000001  0.50000000  0.74980398  1
