# generated using pymatgen
data_Na2ICl
_symmetry_space_group_name_H-M   'P 1'
_cell_length_a   5.38537323
_cell_length_b   5.38537337
_cell_length_c   7.61057566
_cell_angle_alpha   90.00000626
_cell_angle_beta   90.00000458
_cell_angle_gamma   89.99999988
_symmetry_Int_Tables_number   1
_chemical_formula_structural   Na2ICl
_chemical_formula_sum   'Na4 I2 Cl2'
_cell_volume   220.72378443
_cell_formula_units_Z   2
loop_
 _symmetry_equiv_pos_site_id
 _symmetry_equiv_pos_as_xyz
  1  'x, y, z'
loop_
 _atom_site_type_symbol
 _atom_site_label
 _atom_site_symmetry_multiplicity
 _atom_site_fract_x
 _atom_site_fract_y
 _atom_site_fract_z
 _atom_site_occupancy
  Na  Na0  1  0.49999999  -0.00000000  0.75000001  1
  Na  Na1  1  0.49999999  0.00000001  0.25000000  1
  Na  Na2  1  -0.00000001  0.50000001  0.75000000  1
  Na  Na3  1  -0.00000000  0.50000000  0.25000000  1
  I  I4  1  0.50000001  0.49999999  0.00000000  1
  I  I5  1  -0.00000001  0.00000001  0.50000001  1
  Cl  Cl6  1  0.49999999  0.50000001  0.49999998  1
  Cl  Cl7  1  0.00000004  -0.00000002  -0.00000001  1
