# generated using pymatgen
data_LiBrCl2
_symmetry_space_group_name_H-M   'P 1'
_cell_length_a   4.73553950
_cell_length_b   6.36729978
_cell_length_c   7.47596535
_cell_angle_alpha   89.99999635
_cell_angle_beta   90.00008846
_cell_angle_gamma   90.00000001
_symmetry_Int_Tables_number   1
_chemical_formula_structural   LiBrCl2
_chemical_formula_sum   'Li2 Br2 Cl4'
_cell_volume   225.41979026
_cell_formula_units_Z   2
loop_
 _symmetry_equiv_pos_site_id
 _symmetry_equiv_pos_as_xyz
  1  'x, y, z'
loop_
 _atom_site_type_symbol
 _atom_site_label
 _atom_site_symmetry_multiplicity
 _atom_site_fract_x
 _atom_site_fract_y
 _atom_site_fract_z
 _atom_site_occupancy
  Li  Li0  1  0.49999900  0.50000055  0.34115316  1
  Li  Li1  1  -0.00000100  0.00000054  0.34115237  1
  Br  Br2  1  0.00000480  0.00000007  0.76857651  1
  Br  Br3  1  0.50000473  0.50000007  0.76856471  1
  Cl  Cl4  1  0.49999693  0.00000008  0.82537860  1
  Cl  Cl5  1  -0.00000075  0.49999931  0.32895216  1
  Cl  Cl6  1  -0.00000296  0.50000008  0.82536742  1
  Cl  Cl7  1  0.49999925  -0.00000070  0.32895876  1
