# generated using pymatgen
data_Na3I2N
_symmetry_space_group_name_H-M   'P 1'
_cell_length_a   6.34410476
_cell_length_b   7.33146498
_cell_length_c   8.86626461
_cell_angle_alpha   89.99969913
_cell_angle_beta   90.00023174
_cell_angle_gamma   90.00000045
_symmetry_Int_Tables_number   1
_chemical_formula_structural   Na3I2N
_chemical_formula_sum   'Na6 I4 N2'
_cell_volume   412.38399215
_cell_formula_units_Z   2
loop_
 _symmetry_equiv_pos_site_id
 _symmetry_equiv_pos_as_xyz
  1  'x, y, z'
loop_
 _atom_site_type_symbol
 _atom_site_label
 _atom_site_symmetry_multiplicity
 _atom_site_fract_x
 _atom_site_fract_y
 _atom_site_fract_z
 _atom_site_occupancy
  Na  Na0  1  0.00000247  0.49999831  0.05642526  1
  Na  Na1  1  0.49999666  0.49999825  0.05642521  1
  Na  Na2  1  0.50000128  -0.00000074  0.06598884  1
  Na  Na3  1  -0.00000204  -0.00000081  0.06598884  1
  Na  Na4  1  0.25000141  0.20202012  0.39923714  1
  Na  Na5  1  0.75000138  0.79798229  0.39923661  1
  I  I6  1  0.74999850  0.24223887  0.84245573  1
  I  I7  1  0.24999846  0.75775785  0.84245520  1
  I  I8  1  0.75000108  0.24273850  0.35359704  1
  I  I9  1  0.25000104  0.75726236  0.35359640  1
  N  N10  1  0.24999989  0.25471616  0.12410712  1
  N  N11  1  0.74999987  0.74528886  0.12410688  1
