# generated using pymatgen
data_NaIN
_symmetry_space_group_name_H-M   'P 1'
_cell_length_a   4.60043946
_cell_length_b   4.72269892
_cell_length_c   6.96723336
_cell_angle_alpha   90.00000189
_cell_angle_beta   92.88012940
_cell_angle_gamma   90.00002960
_symmetry_Int_Tables_number   1
_chemical_formula_structural   NaIN
_chemical_formula_sum   'Na2 I2 N2'
_cell_volume   151.18232081
_cell_formula_units_Z   2
loop_
 _symmetry_equiv_pos_site_id
 _symmetry_equiv_pos_as_xyz
  1  'x, y, z'
loop_
 _atom_site_type_symbol
 _atom_site_label
 _atom_site_symmetry_multiplicity
 _atom_site_fract_x
 _atom_site_fract_y
 _atom_site_fract_z
 _atom_site_occupancy
  Na  Na0  1  0.51827819  0.24607975  0.85377432  1
  Na  Na1  1  0.51827861  0.75392028  0.35377274  1
  I  I2  1  -0.00393129  0.25086372  0.51848603  1
  I  I3  1  -0.00393133  0.74913630  0.01848587  1
  N  N4  1  0.36065316  0.74812748  0.69570321  1
  N  N5  1  0.36065267  0.25187247  0.19570400  1
