# generated using pymatgen
data_K3BeBr4
_symmetry_space_group_name_H-M   'P 1'
_cell_length_a   7.62859895
_cell_length_b   7.62859986
_cell_length_c   4.17199832
_cell_angle_alpha   90.00040447
_cell_angle_beta   90.00078172
_cell_angle_gamma   90.00318694
_symmetry_Int_Tables_number   1
_chemical_formula_structural   K3BeBr4
_chemical_formula_sum   'K3 Be1 Br4'
_cell_volume   242.79164815
_cell_formula_units_Z   1
loop_
 _symmetry_equiv_pos_site_id
 _symmetry_equiv_pos_as_xyz
  1  'x, y, z'
loop_
 _atom_site_type_symbol
 _atom_site_label
 _atom_site_symmetry_multiplicity
 _atom_site_fract_x
 _atom_site_fract_y
 _atom_site_fract_z
 _atom_site_occupancy
  K  K0  1  -0.00002305  0.50000449  0.11679727  1
  K  K1  1  0.50000865  -0.00001197  0.11679718  1
  K  K2  1  -0.00001049  -0.00000557  0.09380129  1
  Be  Be3  1  0.49996446  0.49998143  -0.29627320  1
  Br  Br4  1  0.73652502  0.73652320  0.61368127  1
  Br  Br5  1  0.26348470  0.73652118  0.61370798  1
  Br  Br6  1  0.73653374  0.26347211  0.61370052  1
  Br  Br7  1  0.26351696  0.26351513  0.61370492  1
