# generated using pymatgen
data_NaSI3
_symmetry_space_group_name_H-M   'P 1'
_cell_length_a   9.74980084
_cell_length_b   4.69279635
_cell_length_c   8.73689315
_cell_angle_alpha   89.90769384
_cell_angle_beta   89.99954826
_cell_angle_gamma   89.96335882
_symmetry_Int_Tables_number   1
_chemical_formula_structural   NaSI3
_chemical_formula_sum   'Na2 S2 I6'
_cell_volume   399.74572139
_cell_formula_units_Z   2
loop_
 _symmetry_equiv_pos_site_id
 _symmetry_equiv_pos_as_xyz
  1  'x, y, z'
loop_
 _atom_site_type_symbol
 _atom_site_label
 _atom_site_symmetry_multiplicity
 _atom_site_fract_x
 _atom_site_fract_y
 _atom_site_fract_z
 _atom_site_occupancy
  Na  Na0  1  0.49999655  0.50038889  0.60987455  1
  Na  Na1  1  0.49999827  0.50038398  0.10988414  1
  S  S2  1  0.00000472  0.50012483  0.19922041  1
  S  S3  1  0.00000396  0.50012689  0.69921392  1
  I  I4  1  -0.00000024  -0.00016243  0.30261190  1
  I  I5  1  0.33483920  -0.00322826  0.33899454  1
  I  I6  1  0.66515467  0.00287731  0.33899358  1
  I  I7  1  0.00000298  -0.00016135  0.80260726  1
  I  I8  1  0.33484011  0.00257946  0.83901048  1
  I  I9  1  0.66515978  -0.00292933  0.83902212  1
