# generated using pymatgen
data_Na(I3Cl4)2
_symmetry_space_group_name_H-M   'P 1'
_cell_length_a   7.49273926
_cell_length_b   7.49334500
_cell_length_c   7.48999450
_cell_angle_alpha   90.00373270
_cell_angle_beta   89.99831353
_cell_angle_gamma   90.00004508
_symmetry_Int_Tables_number   1
_chemical_formula_structural   Na(I3Cl4)2
_chemical_formula_sum   'Na1 I6 Cl8'
_cell_volume   420.53083522
_cell_formula_units_Z   1
loop_
 _symmetry_equiv_pos_site_id
 _symmetry_equiv_pos_as_xyz
  1  'x, y, z'
loop_
 _atom_site_type_symbol
 _atom_site_label
 _atom_site_symmetry_multiplicity
 _atom_site_fract_x
 _atom_site_fract_y
 _atom_site_fract_z
 _atom_site_occupancy
  Na  Na0  1  0.49999999  0.50000001  0.49999987  1
  I  I1  1  -0.00000003  0.50000012  -0.00000002  1
  I  I2  1  0.50000000  0.00000013  -0.00000001  1
  I  I3  1  -0.00000002  0.00000010  0.49999980  1
  I  I4  1  0.00000000  0.49999994  0.50000023  1
  I  I5  1  0.49999999  0.00000010  0.50000042  1
  I  I6  1  0.49999993  0.49999992  -0.00000022  1
  Cl  Cl7  1  0.25756046  0.74245391  0.25757640  1
  Cl  Cl8  1  0.25756156  0.74245275  0.74242277  1
  Cl  Cl9  1  0.74243895  0.74245277  0.25756370  1
  Cl  Cl10  1  0.74243924  0.74245405  0.74241149  1
  Cl  Cl11  1  0.74244009  0.25754568  0.74242384  1
  Cl  Cl12  1  0.25756045  0.25754700  0.74243642  1
  Cl  Cl13  1  0.74243845  0.25754738  0.25757688  1
  Cl  Cl14  1  0.25756094  0.25754616  0.25758846  1
