# generated using pymatgen
data_K2SI
_symmetry_space_group_name_H-M   'P 1'
_cell_length_a   5.81785366
_cell_length_b   5.81782710
_cell_length_c   8.15356441
_cell_angle_alpha   89.99998696
_cell_angle_beta   89.99997928
_cell_angle_gamma   89.99994194
_symmetry_Int_Tables_number   1
_chemical_formula_structural   K2SI
_chemical_formula_sum   'K4 S2 I2'
_cell_volume   275.97586917
_cell_formula_units_Z   2
loop_
 _symmetry_equiv_pos_site_id
 _symmetry_equiv_pos_as_xyz
  1  'x, y, z'
loop_
 _atom_site_type_symbol
 _atom_site_label
 _atom_site_symmetry_multiplicity
 _atom_site_fract_x
 _atom_site_fract_y
 _atom_site_fract_z
 _atom_site_occupancy
  K  K0  1  0.00000003  0.49999999  0.74999875  1
  K  K1  1  -0.00000005  0.50000003  0.25000125  1
  K  K2  1  0.50000002  0.00000006  0.74999843  1
  K  K3  1  0.50000000  -0.00000008  0.25000158  1
  S  S4  1  0.00000000  -0.00000000  -0.00000000  1
  S  S5  1  0.50000000  0.49999999  0.50000000  1
  I  I6  1  -0.00000000  -0.00000000  0.50000000  1
  I  I7  1  0.50000000  0.50000001  -0.00000000  1
