# generated using pymatgen
data_Li4I2N
_symmetry_space_group_name_H-M   'P 1'
_cell_length_a   9.02083203
_cell_length_b   5.08121499
_cell_length_c   6.42218260
_cell_angle_alpha   90.00004382
_cell_angle_beta   90.00091349
_cell_angle_gamma   90.05207330
_symmetry_Int_Tables_number   1
_chemical_formula_structural   Li4I2N
_chemical_formula_sum   'Li8 I4 N2'
_cell_volume   294.37209378
_cell_formula_units_Z   2
loop_
 _symmetry_equiv_pos_site_id
 _symmetry_equiv_pos_as_xyz
  1  'x, y, z'
loop_
 _atom_site_type_symbol
 _atom_site_label
 _atom_site_symmetry_multiplicity
 _atom_site_fract_x
 _atom_site_fract_y
 _atom_site_fract_z
 _atom_site_occupancy
  Li  Li0  1  0.97178531  0.25000815  0.71510193  1
  Li  Li1  1  0.02821457  0.74998944  0.71510032  1
  Li  Li2  1  0.49999482  0.50000087  0.17337572  1
  Li  Li3  1  0.50000583  0.49999846  0.75934365  1
  Li  Li4  1  0.49999424  -0.00000120  0.67339055  1
  Li  Li5  1  0.50000513  0.00000051  0.25932726  1
  Li  Li6  1  0.02821438  0.75005574  0.21511523  1
  Li  Li7  1  0.97178573  0.24994672  0.21511706  1
  I  I8  1  0.70787949  0.96190271  0.96645294  1
  I  I9  1  0.29212011  0.03809810  0.96645951  1
  I  I10  1  0.29206891  0.46235160  0.46645968  1
  I  I11  1  0.70793149  0.53764918  0.46645330  1
  N  N12  1  0.00000007  -0.00000014  0.46520368  1
  N  N13  1  -0.00000007  0.49999985  0.96520384  1
