# generated using pymatgen
data_Na2SiCl5
_symmetry_space_group_name_H-M   'P 1'
_cell_length_a   6.72000394
_cell_length_b   6.72000379
_cell_length_c   9.10009086
_cell_angle_alpha   90.00006498
_cell_angle_beta   90.00005131
_cell_angle_gamma   90.00000353
_symmetry_Int_Tables_number   1
_chemical_formula_structural   Na2SiCl5
_chemical_formula_sum   'Na4 Si2 Cl10'
_cell_volume   410.94601603
_cell_formula_units_Z   2
loop_
 _symmetry_equiv_pos_site_id
 _symmetry_equiv_pos_as_xyz
  1  'x, y, z'
loop_
 _atom_site_type_symbol
 _atom_site_label
 _atom_site_symmetry_multiplicity
 _atom_site_fract_x
 _atom_site_fract_y
 _atom_site_fract_z
 _atom_site_occupancy
  Na  Na0  1  0.00000111  0.50000329  0.81653668  1
  Na  Na1  1  0.49999234  -0.00000076  0.81653662  1
  Na  Na2  1  0.50000317  0.00000118  0.31653325  1
  Na  Na3  1  -0.00000077  0.49999232  0.31653334  1
  Si  Si4  1  0.49999789  0.50000382  0.61646276  1
  Si  Si5  1  0.50000381  0.49999789  0.11640903  1
  Cl  Cl6  1  0.33061600  0.77238975  0.56465316  1
  Cl  Cl7  1  0.22760908  0.33061517  0.56465562  1
  Cl  Cl8  1  0.77239138  0.66938543  0.56465424  1
  Cl  Cl9  1  0.66938623  0.22760751  0.56465659  1
  Cl  Cl10  1  0.77235774  0.33063378  0.06465915  1
  Cl  Cl11  1  0.33063300  0.22764122  0.06466136  1
  Cl  Cl12  1  0.66936763  0.77235927  0.06465996  1
  Cl  Cl13  1  0.22763956  0.66936845  0.06466254  1
  Cl  Cl14  1  0.00000582  -0.00000409  0.82450291  1
  Cl  Cl15  1  -0.00000398  0.00000576  0.32450184  1
