# generated using pymatgen
data_Na3NO3
_symmetry_space_group_name_H-M   'P 1'
_cell_length_a   8.45529675
_cell_length_b   7.71045727
_cell_length_c   6.33629765
_cell_angle_alpha   89.99467333
_cell_angle_beta   89.99211228
_cell_angle_gamma   89.99698408
_symmetry_Int_Tables_number   1
_chemical_formula_structural   Na3NO3
_chemical_formula_sum   'Na12 N4 O12'
_cell_volume   413.08987753
_cell_formula_units_Z   4
loop_
 _symmetry_equiv_pos_site_id
 _symmetry_equiv_pos_as_xyz
  1  'x, y, z'
loop_
 _atom_site_type_symbol
 _atom_site_label
 _atom_site_symmetry_multiplicity
 _atom_site_fract_x
 _atom_site_fract_y
 _atom_site_fract_z
 _atom_site_occupancy
  Na  Na0  1  -0.00003899  0.79100333  0.27236159  1
  Na  Na1  1  0.83395713  0.90185218  0.82736646  1
  Na  Na2  1  0.16606325  0.90183439  0.82729960  1
  Na  Na3  1  0.00001493  0.20902936  0.77213734  1
  Na  Na4  1  0.83395919  0.09820668  0.32726469  1
  Na  Na5  1  0.16606020  0.09813065  0.32716564  1
  Na  Na6  1  0.49994798  0.29138892  0.27776897  1
  Na  Na7  1  0.33421706  0.40118550  0.83174281  1
  Na  Na8  1  0.66578656  0.40118467  0.83174516  1
  Na  Na9  1  0.50002771  0.70868407  0.77751306  1
  Na  Na10  1  0.33423972  0.59887936  0.33172920  1
  Na  Na11  1  0.66577136  0.59881562  0.33156629  1
  N  N12  1  0.50000038  0.01837534  0.91805058  1
  N  N13  1  0.50002949  0.98167116  0.41796749  1
  N  N14  1  -0.00007748  0.51892886  0.91411742  1
  N  N15  1  0.00007716  0.48106481  0.41409029  1
  O  O16  1  0.00000589  -0.03452390  0.56161546  1
  O  O17  1  0.62844028  0.90237233  0.46469835  1
  O  O18  1  0.37159814  0.90241207  0.46477802  1
  O  O19  1  -0.00000678  0.03449892  0.06147643  1
  O  O20  1  0.62840317  0.09757548  -0.03501554  1
  O  O21  1  0.37156014  0.09755283  -0.03495449  1
  O  O22  1  0.50003699  0.46597414  0.56629029  1
  O  O23  1  0.12842760  0.40174057  0.46100620  1
  O  O24  1  0.87167816  0.40183683  0.46093790  1
  O  O25  1  0.49994415  0.53402057  0.06625163  1
  O  O26  1  0.12833284  0.59812896  -0.03907706  1
  O  O27  1  0.87154375  0.59817629  -0.03887873  1
