# generated using pymatgen
data_Li2ICl
_symmetry_space_group_name_H-M   'P 1'
_cell_length_a   8.15114435
_cell_length_b   8.14842132
_cell_length_c   5.72472292
_cell_angle_alpha   89.99991132
_cell_angle_beta   90.00037471
_cell_angle_gamma   89.99986532
_symmetry_Int_Tables_number   1
_chemical_formula_structural   Li2ICl
_chemical_formula_sum   'Li8 I4 Cl4'
_cell_volume   380.23013318
_cell_formula_units_Z   4
loop_
 _symmetry_equiv_pos_site_id
 _symmetry_equiv_pos_as_xyz
  1  'x, y, z'
loop_
 _atom_site_type_symbol
 _atom_site_label
 _atom_site_symmetry_multiplicity
 _atom_site_fract_x
 _atom_site_fract_y
 _atom_site_fract_z
 _atom_site_occupancy
  Li  Li0  1  0.49999910  0.00000792  0.85297510  1
  Li  Li1  1  -0.00001075  0.49999351  0.85298019  1
  Li  Li2  1  0.84514160  0.74959782  0.42956653  1
  Li  Li3  1  0.15488250  0.25039362  0.42956693  1
  Li  Li4  1  0.00000048  -0.00000311  0.00867949  1
  Li  Li5  1  0.65489621  0.24962595  0.42957199  1
  Li  Li6  1  0.34515641  0.75042327  0.42955150  1
  Li  Li7  1  0.49999095  0.49999875  0.00867687  1
  I  I8  1  0.75512241  0.74987041  -0.07013860  1
  I  I9  1  0.24486867  0.25012705  -0.07014149  1
  I  I10  1  0.74486899  0.24986849  -0.07013479  1
  I  I11  1  0.25512392  0.75012587  -0.07015376  1
  Cl  Cl12  1  -0.00004902  0.49996182  0.43974863  1
  Cl  Cl13  1  0.00001750  -0.00001350  0.42159148  1
  Cl  Cl14  1  0.50001045  0.00002130  0.43974460  1
  Cl  Cl15  1  0.49998058  0.50000083  0.42158947  1
