# generated using pymatgen
data_LiBrO
_symmetry_space_group_name_H-M   'P 1'
_cell_length_a   4.97180294
_cell_length_b   4.97293932
_cell_length_c   7.89496843
_cell_angle_alpha   90.01925641
_cell_angle_beta   90.01793836
_cell_angle_gamma   89.99997813
_symmetry_Int_Tables_number   1
_chemical_formula_structural   LiBrO
_chemical_formula_sum   'Li4 Br4 O4'
_cell_volume   195.19892367
_cell_formula_units_Z   4
loop_
 _symmetry_equiv_pos_site_id
 _symmetry_equiv_pos_as_xyz
  1  'x, y, z'
loop_
 _atom_site_type_symbol
 _atom_site_label
 _atom_site_symmetry_multiplicity
 _atom_site_fract_x
 _atom_site_fract_y
 _atom_site_fract_z
 _atom_site_occupancy
  Li  Li0  1  0.50001765  0.00002086  0.45832312  1
  Li  Li1  1  0.00001659  0.50001743  0.54772010  1
  Li  Li2  1  0.50038043  0.00040521  0.93177112  1
  Li  Li3  1  -0.00022999  0.49965883  0.05788462  1
  Br  Br4  1  0.49999457  0.49991378  0.28126451  1
  Br  Br5  1  0.00004582  0.00004386  0.67188001  1
  Br  Br6  1  0.50004244  0.50004881  0.67194792  1
  Br  Br7  1  -0.00008486  0.00000065  0.28128504  1
  O  O8  1  -0.00000238  0.50000520  0.30499044  1
  O  O9  1  0.50003669  0.00003897  0.68809230  1
  O  O10  1  -0.00029879  0.00015952  0.05243818  1
  O  O11  1  0.50008184  0.49968688  0.05240263  1
