# generated using pymatgen
data_NaBrCl2
_symmetry_space_group_name_H-M   'P 1'
_cell_length_a   5.49794606
_cell_length_b   5.49794606
_cell_length_c   7.84843863
_cell_angle_alpha   89.99999735
_cell_angle_beta   90.00000199
_cell_angle_gamma   90.00000052
_symmetry_Int_Tables_number   1
_chemical_formula_structural   NaBrCl2
_chemical_formula_sum   'Na2 Br2 Cl4'
_cell_volume   237.23797888
_cell_formula_units_Z   2
loop_
 _symmetry_equiv_pos_site_id
 _symmetry_equiv_pos_as_xyz
  1  'x, y, z'
loop_
 _atom_site_type_symbol
 _atom_site_label
 _atom_site_symmetry_multiplicity
 _atom_site_fract_x
 _atom_site_fract_y
 _atom_site_fract_z
 _atom_site_occupancy
  Na  Na0  1  0.49999999  0.50000001  0.00000000  1
  Na  Na1  1  -0.00000001  -0.00000001  0.50000000  1
  Br  Br2  1  -0.00000024  0.00000041  -0.00000001  1
  Br  Br3  1  0.49999972  0.50000001  0.49999999  1
  Cl  Cl4  1  0.00000005  0.49999966  0.00130384  1
  Cl  Cl5  1  0.50000020  -0.00000005  -0.00130384  1
  Cl  Cl6  1  0.50000005  -0.00000002  0.49869364  1
  Cl  Cl7  1  0.00000024  0.49999999  0.50130637  1
