# generated using pymatgen
data_K2PI3
_symmetry_space_group_name_H-M   'P 1'
_cell_length_a   10.16106401
_cell_length_b   10.13852639
_cell_length_c   3.72045699
_cell_angle_alpha   89.99999996
_cell_angle_beta   89.99999989
_cell_angle_gamma   120.11469997
_symmetry_Int_Tables_number   1
_chemical_formula_structural   K2PI3
_chemical_formula_sum   'K2 P1 I3'
_cell_volume   331.54144674
_cell_formula_units_Z   1
loop_
 _symmetry_equiv_pos_site_id
 _symmetry_equiv_pos_as_xyz
  1  'x, y, z'
loop_
 _atom_site_type_symbol
 _atom_site_label
 _atom_site_symmetry_multiplicity
 _atom_site_fract_x
 _atom_site_fract_y
 _atom_site_fract_z
 _atom_site_occupancy
  K  K0  1  0.33261434  0.66631843  0.12593472  1
  K  K1  1  0.66738556  0.33368145  0.12593468  1
  P  P2  1  0.00000028  0.00000032  0.01006753  1
  I  I3  1  0.49999998  0.49999998  0.62561639  1
  I  I4  1  0.49999994  -0.00000013  0.62545024  1
  I  I5  1  -0.00000010  0.49999995  0.62555008  1
