# generated using pymatgen
data_KBrO
_symmetry_space_group_name_H-M   'P 1'
_cell_length_a   4.96981266
_cell_length_b   4.97057379
_cell_length_c   6.75918537
_cell_angle_alpha   97.06368114
_cell_angle_beta   97.11253475
_cell_angle_gamma   86.13353835
_symmetry_Int_Tables_number   1
_chemical_formula_structural   KBrO
_chemical_formula_sum   'K2 Br2 O2'
_cell_volume   164.19732889
_cell_formula_units_Z   2
loop_
 _symmetry_equiv_pos_site_id
 _symmetry_equiv_pos_as_xyz
  1  'x, y, z'
loop_
 _atom_site_type_symbol
 _atom_site_label
 _atom_site_symmetry_multiplicity
 _atom_site_fract_x
 _atom_site_fract_y
 _atom_site_fract_z
 _atom_site_occupancy
  K  K0  1  0.01041178  0.01060446  0.31724251  1
  K  K1  1  0.49021401  0.49018800  0.71215564  1
  Br  Br2  1  -0.05115975  -0.05142116  0.80118770  1
  Br  Br3  1  0.54402882  0.54427531  0.23088424  1
  O  O4  1  0.55178138  -0.04536002  0.50976661  1
  O  O5  1  -0.04527625  0.55171341  0.50981801  1
