# generated using pymatgen
data_NaC3I2
_symmetry_space_group_name_H-M   'P 1'
_cell_length_a   3.54206970
_cell_length_b   3.94962076
_cell_length_c   9.66125519
_cell_angle_alpha   94.72318417
_cell_angle_beta   93.87893703
_cell_angle_gamma   90.84813259
_symmetry_Int_Tables_number   1
_chemical_formula_structural   NaC3I2
_chemical_formula_sum   'Na1 C3 I2'
_cell_volume   134.36357550
_cell_formula_units_Z   1
loop_
 _symmetry_equiv_pos_site_id
 _symmetry_equiv_pos_as_xyz
  1  'x, y, z'
loop_
 _atom_site_type_symbol
 _atom_site_label
 _atom_site_symmetry_multiplicity
 _atom_site_fract_x
 _atom_site_fract_y
 _atom_site_fract_z
 _atom_site_occupancy
  Na  Na0  1  0.39035821  0.42221602  -0.04571004  1
  C  C1  1  -0.05546121  0.46228409  0.34942405  1
  C  C2  1  -0.12330580  -0.06036354  -0.04566263  1
  C  C3  1  0.89343200  -0.14806556  0.82676827  1
  I  I4  1  -0.04311248  0.68496230  0.61963627  1
  I  I5  1  0.43808928  0.13896669  0.29554409  1
