# generated using pymatgen
data_KI3Br4
_symmetry_space_group_name_H-M   'P 1'
_cell_length_a   6.64128244
_cell_length_b   6.64128022
_cell_length_c   6.64128151
_cell_angle_alpha   90.00000089
_cell_angle_beta   90.00000189
_cell_angle_gamma   90.00000081
_symmetry_Int_Tables_number   1
_chemical_formula_structural   KI3Br4
_chemical_formula_sum   'K1 I3 Br4'
_cell_volume   292.92446491
_cell_formula_units_Z   1
loop_
 _symmetry_equiv_pos_site_id
 _symmetry_equiv_pos_as_xyz
  1  'x, y, z'
loop_
 _atom_site_type_symbol
 _atom_site_label
 _atom_site_symmetry_multiplicity
 _atom_site_fract_x
 _atom_site_fract_y
 _atom_site_fract_z
 _atom_site_occupancy
  K  K0  1  -0.00000000  -0.00000000  0.00000000  1
  I  I1  1  0.00000000  0.00000000  0.50000000  1
  I  I2  1  0.50000000  -0.00000000  -0.00000000  1
  I  I3  1  0.00000000  0.50000000  -0.00000000  1
  Br  Br4  1  0.50000000  0.00000000  0.50000000  1
  Br  Br5  1  0.00000000  0.50000000  0.50000000  1
  Br  Br6  1  0.50000000  0.50000000  0.50000000  1
  Br  Br7  1  0.50000000  0.50000000  0.00000000  1
