# generated using pymatgen
data_Na4SCl10
_symmetry_space_group_name_H-M   'P 1'
_cell_length_a   7.72182148
_cell_length_b   7.62176509
_cell_length_c   7.91387873
_cell_angle_alpha   68.96117755
_cell_angle_beta   87.64369710
_cell_angle_gamma   90.30621844
_symmetry_Int_Tables_number   1
_chemical_formula_structural   Na4SCl10
_chemical_formula_sum   'Na4 S1 Cl10'
_cell_volume   434.24523676
_cell_formula_units_Z   1
loop_
 _symmetry_equiv_pos_site_id
 _symmetry_equiv_pos_as_xyz
  1  'x, y, z'
loop_
 _atom_site_type_symbol
 _atom_site_label
 _atom_site_symmetry_multiplicity
 _atom_site_fract_x
 _atom_site_fract_y
 _atom_site_fract_z
 _atom_site_occupancy
  Na  Na0  1  0.06172021  -0.01545471  -0.00977581  1
  Na  Na1  1  0.38471938  0.47659387  0.45679154  1
  Na  Na2  1  0.07572754  0.49304189  -0.03540042  1
  Na  Na3  1  0.54035895  -0.01716049  -0.06854808  1
  S  S4  1  0.05749907  -0.02699838  0.51252225  1
  Cl  Cl5  1  0.57238197  0.15614124  0.52005782  1
  Cl  Cl6  1  -0.29205127  0.64286577  0.49809920  1
  Cl  Cl7  1  0.80386009  0.24391542  0.94795700  1
  Cl  Cl8  1  0.77026848  0.70023662  0.21914248  1
  Cl  Cl9  1  0.18632913  0.13204523  0.27266679  1
  Cl  Cl10  1  0.23794815  0.77454406  0.62241066  1
  Cl  Cl11  1  0.68804473  0.19292020  0.24685347  1
  Cl  Cl12  1  0.29240472  0.27515946  0.82301844  1
  Cl  Cl13  1  0.83433291  0.77616351  0.87647949  1
  Cl  Cl14  1  0.28645595  0.69598633  0.11772517  1
