# generated using pymatgen
data_Li2ClO3
_symmetry_space_group_name_H-M   'P 1'
_cell_length_a   10.26324996
_cell_length_b   7.64813129
_cell_length_c   8.44604350
_cell_angle_alpha   90.00926190
_cell_angle_beta   90.00040095
_cell_angle_gamma   90.01047569
_symmetry_Int_Tables_number   1
_chemical_formula_structural   Li2ClO3
_chemical_formula_sum   'Li16 Cl8 O24'
_cell_volume   662.96948906
_cell_formula_units_Z   8
loop_
 _symmetry_equiv_pos_site_id
 _symmetry_equiv_pos_as_xyz
  1  'x, y, z'
loop_
 _atom_site_type_symbol
 _atom_site_label
 _atom_site_symmetry_multiplicity
 _atom_site_fract_x
 _atom_site_fract_y
 _atom_site_fract_z
 _atom_site_occupancy
  Li  Li0  1  0.00780248  0.71191511  0.22431538  1
  Li  Li1  1  0.00785078  0.21193844  0.72433579  1
  Li  Li2  1  0.50781406  0.71134465  0.72501207  1
  Li  Li3  1  0.50783118  0.21136628  0.22499825  1
  Li  Li4  1  0.99220312  0.78863849  0.72508737  1
  Li  Li5  1  0.99213401  0.28865462  0.22510765  1
  Li  Li6  1  0.49216679  0.28803663  0.72441891  1
  Li  Li7  1  0.49215930  0.78812938  0.22445875  1
  Li  Li8  1  0.75782379  0.53827545  0.97441998  1
  Li  Li9  1  0.25779661  0.03847608  0.97515958  1
  Li  Li10  1  0.75787559  0.03825770  0.47446646  1
  Li  Li11  1  0.25778553  0.53841217  0.47507258  1
  Li  Li12  1  0.24220643  0.46155149  0.97506578  1
  Li  Li13  1  0.24223532  -0.03843081  0.47496829  1
  Li  Li14  1  0.74216014  -0.03821573  0.97431166  1
  Li  Li15  1  0.74215331  0.46172032  0.47434064  1
  Cl  Cl16  1  0.74997051  0.24987290  0.25605594  1
  Cl  Cl17  1  0.49996618  -0.00003455  0.00635312  1
  Cl  Cl18  1  0.24999623  0.24990166  0.75666158  1
  Cl  Cl19  1  0.00011381  -0.00021822  0.50636908  1
  Cl  Cl20  1  0.74999219  0.74990176  0.75611955  1
  Cl  Cl21  1  0.49993195  0.49997267  0.50637523  1
  Cl  Cl22  1  0.24996882  0.74987517  0.25665696  1
  Cl  Cl23  1  0.00006541  0.49982488  0.00634418  1
  O  O24  1  0.74997806  0.75023323  0.24252137  1
  O  O25  1  0.65827907  0.66786229  0.15267203  1
  O  O26  1  0.84180558  0.83197609  0.15237989  1
  O  O27  1  0.49996169  0.49917941  -0.00700439  1
  O  O28  1  0.59186255  0.41812750  0.90255290  1
  O  O29  1  0.40838686  0.58224386  0.90345940  1
  O  O30  1  0.25002728  0.75020881  0.74341524  1
  O  O31  1  0.15831806  0.66782466  0.65356306  1
  O  O32  1  0.34178376  0.83207802  0.65328280  1
  O  O33  1  -0.00002746  0.50121916  0.49295957  1
  O  O34  1  0.09154933  0.41770839  0.40377876  1
  O  O35  1  0.90808106  0.58184657  0.40218529  1
  O  O36  1  0.75004327  0.25023148  0.74249953  1
  O  O37  1  0.65827898  0.16789779  0.65268035  1
  O  O38  1  0.84182103  0.33201827  0.65237027  1
  O  O39  1  0.50001421  -0.00071177  0.49298572  1
  O  O40  1  0.59180461  0.91800331  0.40251873  1
  O  O41  1  0.40833831  0.08216130  0.40347339  1
  O  O42  1  0.24998559  0.25020189  0.24343260  1
  O  O43  1  0.15829854  0.16781359  0.15358016  1
  O  O44  1  0.34176152  0.33207292  0.15332044  1
  O  O45  1  0.00001460  0.00115796  -0.00702203  1
  O  O46  1  0.09154733  0.91767106  0.90368216  1
  O  O47  1  0.90808264  0.08180769  0.90230804  1
