# generated using pymatgen
data_K2I3O
_symmetry_space_group_name_H-M   'P 1'
_cell_length_a   8.07120698
_cell_length_b   8.07120714
_cell_length_c   8.04477023
_cell_angle_alpha   90.00000088
_cell_angle_beta   89.99999930
_cell_angle_gamma   120.00046772
_symmetry_Int_Tables_number   1
_chemical_formula_structural   K2I3O
_chemical_formula_sum   'K4 I6 O2'
_cell_volume   453.85717653
_cell_formula_units_Z   2
loop_
 _symmetry_equiv_pos_site_id
 _symmetry_equiv_pos_as_xyz
  1  'x, y, z'
loop_
 _atom_site_type_symbol
 _atom_site_label
 _atom_site_symmetry_multiplicity
 _atom_site_fract_x
 _atom_site_fract_y
 _atom_site_fract_z
 _atom_site_occupancy
  K  K0  1  0.66666660  0.33333341  0.24999999  1
  K  K1  1  0.33333341  0.66666660  0.75000000  1
  K  K2  1  0.66666660  0.33333340  0.75000000  1
  K  K3  1  0.33333340  0.66666660  0.25000000  1
  I  I4  1  0.71821731  0.00000042  0.00000023  1
  I  I5  1  -0.00000043  0.28178267  0.49999977  1
  I  I6  1  0.00000043  0.71821728  0.00000022  1
  I  I7  1  0.28178269  -0.00000042  0.49999978  1
  I  I8  1  0.28178383  0.28178382  0.00000023  1
  I  I9  1  0.71821616  0.71821617  0.49999978  1
  O  O10  1  0.00000000  0.00000004  0.25000002  1
  O  O11  1  0.00000001  0.00000002  0.74999998  1
