# generated using pymatgen
data_NaBrO2
_symmetry_space_group_name_H-M   'P 1'
_cell_length_a   6.35564265
_cell_length_b   3.05990618
_cell_length_c   6.33651066
_cell_angle_alpha   90.00000513
_cell_angle_beta   89.99986343
_cell_angle_gamma   90.00055129
_symmetry_Int_Tables_number   1
_chemical_formula_structural   NaBrO2
_chemical_formula_sum   'Na2 Br2 O4'
_cell_volume   123.23036958
_cell_formula_units_Z   2
loop_
 _symmetry_equiv_pos_site_id
 _symmetry_equiv_pos_as_xyz
  1  'x, y, z'
loop_
 _atom_site_type_symbol
 _atom_site_label
 _atom_site_symmetry_multiplicity
 _atom_site_fract_x
 _atom_site_fract_y
 _atom_site_fract_z
 _atom_site_occupancy
  Na  Na0  1  0.50001925  0.00002419  0.00000001  1
  Na  Na1  1  -0.00003284  0.49999982  0.50000001  1
  Br  Br2  1  0.50001757  0.49998056  0.50000000  1
  Br  Br3  1  -0.00000137  -0.00018106  -0.00000000  1
  O  O4  1  0.21926103  0.49979207  -0.00000019  1
  O  O5  1  0.78076676  0.50036477  0.00000018  1
  O  O6  1  0.71922524  0.00029185  0.50000064  1
  O  O7  1  0.28074436  -0.00027220  0.49999936  1
