# generated using pymatgen
data_Li3Br3O
_symmetry_space_group_name_H-M   'P 1'
_cell_length_a   8.78784774
_cell_length_b   8.78765220
_cell_length_c   9.66801682
_cell_angle_alpha   89.98717866
_cell_angle_beta   90.01055017
_cell_angle_gamma   120.02806140
_symmetry_Int_Tables_number   1
_chemical_formula_structural   Li3Br3O
_chemical_formula_sum   'Li9 Br9 O3'
_cell_volume   646.39877879
_cell_formula_units_Z   3
loop_
 _symmetry_equiv_pos_site_id
 _symmetry_equiv_pos_as_xyz
  1  'x, y, z'
loop_
 _atom_site_type_symbol
 _atom_site_label
 _atom_site_symmetry_multiplicity
 _atom_site_fract_x
 _atom_site_fract_y
 _atom_site_fract_z
 _atom_site_occupancy
  Li  Li0  1  0.21759302  0.78308702  0.90071147  1
  Li  Li1  1  0.21672581  0.43427206  0.90053504  1
  Li  Li2  1  0.56570505  0.78263709  0.90050800  1
  Li  Li3  1  0.88421623  0.11647603  0.23389723  1
  Li  Li4  1  0.88333757  0.76745983  0.23357726  1
  Li  Li5  1  0.23251799  0.11601753  0.23352952  1
  Li  Li6  1  0.55009767  0.10093042  0.56751754  1
  Li  Li7  1  0.55090873  0.44970547  0.56784504  1
  Li  Li8  1  0.89904270  0.44932445  0.56745391  1
  Br  Br9  1  0.97315770  0.48703763  0.81933206  1
  Br  Br10  1  0.51295089  0.48613134  0.81955772  1
  Br  Br11  1  0.51384914  0.02688466  0.81939350  1
  Br  Br12  1  0.63986540  0.82044127  0.15245400  1
  Br  Br13  1  0.17954571  0.81945593  0.15252586  1
  Br  Br14  1  0.18051228  0.36017072  0.15248546  1
  Br  Br15  1  0.84623909  0.15291290  0.48581654  1
  Br  Br16  1  0.30666168  0.15375933  0.48563101  1
  Br  Br17  1  0.84702263  0.69336663  0.48567392  1
  O  O18  1  0.33336414  0.66664052  0.81203300  1
  O  O19  1  0.00001625  -0.00002229  0.14512112  1
  O  O20  1  0.66667030  0.33331147  0.47896495  1
