# generated using pymatgen
data_NaSi5N2
_symmetry_space_group_name_H-M   'P 1'
_cell_length_a   3.92761444
_cell_length_b   3.92761484
_cell_length_c   6.63218684
_cell_angle_alpha   90.00006653
_cell_angle_beta   90.00006974
_cell_angle_gamma   89.99999865
_symmetry_Int_Tables_number   1
_chemical_formula_structural   NaSi5N2
_chemical_formula_sum   'Na1 Si5 N2'
_cell_volume   102.30915394
_cell_formula_units_Z   1
loop_
 _symmetry_equiv_pos_site_id
 _symmetry_equiv_pos_as_xyz
  1  'x, y, z'
loop_
 _atom_site_type_symbol
 _atom_site_label
 _atom_site_symmetry_multiplicity
 _atom_site_fract_x
 _atom_site_fract_y
 _atom_site_fract_z
 _atom_site_occupancy
  Na  Na0  1  0.00000000  0.00000001  -0.00000002  1
  Si  Si1  1  0.50000001  0.50000002  -0.00000003  1
  Si  Si2  1  0.50000032  0.00000037  0.31529354  1
  Si  Si3  1  -0.00000049  0.49999969  0.68470635  1
  Si  Si4  1  0.49999964  -0.00000044  0.68470635  1
  Si  Si5  1  0.00000036  0.50000033  0.31529355  1
  N  N6  1  0.50000010  0.50000004  0.50000005  1
  N  N7  1  0.00000006  -0.00000002  0.50000020  1
