# generated using pymatgen
data_Na10Si3O2
_symmetry_space_group_name_H-M   'P 1'
_cell_length_a   10.46669966
_cell_length_b   10.46669384
_cell_length_c   6.49101367
_cell_angle_alpha   90.00028156
_cell_angle_beta   89.99949717
_cell_angle_gamma   88.10557412
_symmetry_Int_Tables_number   1
_chemical_formula_structural   Na10Si3O2
_chemical_formula_sum   'Na20 Si6 O4'
_cell_volume   710.71318581
_cell_formula_units_Z   2
loop_
 _symmetry_equiv_pos_site_id
 _symmetry_equiv_pos_as_xyz
  1  'x, y, z'
loop_
 _atom_site_type_symbol
 _atom_site_label
 _atom_site_symmetry_multiplicity
 _atom_site_fract_x
 _atom_site_fract_y
 _atom_site_fract_z
 _atom_site_occupancy
  Na  Na0  1  0.90543761  0.90543953  0.46092926  1
  Na  Na1  1  0.09648453  0.90353151  0.95530048  1
  Na  Na2  1  0.90345665  0.09655686  0.95527350  1
  Na  Na3  1  0.09453608  0.09453599  0.46105916  1
  Na  Na4  1  0.50092193  0.27978985  0.88157112  1
  Na  Na5  1  0.27982007  0.50088067  0.88156506  1
  Na  Na6  1  0.49911061  0.72018841  0.88156263  1
  Na  Na7  1  0.72021822  0.49907883  0.88156666  1
  Na  Na8  1  -0.00232437  0.65658181  0.68899793  1
  Na  Na9  1  0.65654262  -0.00236036  0.68897918  1
  Na  Na10  1  0.34353039  0.00232846  0.68903435  1
  Na  Na11  1  0.00236063  0.34356672  0.68901307  1
  Na  Na12  1  0.24169585  0.48542375  0.37962107  1
  Na  Na13  1  0.48540658  0.24167391  0.37960719  1
  Na  Na14  1  0.75834251  0.51460773  0.37960718  1
  Na  Na15  1  0.51459338  0.75832033  0.37962360  1
  Na  Na16  1  -0.00883799  0.33685575  0.18472987  1
  Na  Na17  1  0.33690940  -0.00886342  0.18470864  1
  Na  Na18  1  0.66308760  0.00887027  0.18466164  1
  Na  Na19  1  0.00889539  0.66303715  0.18463762  1
  Si  Si20  1  0.21887636  0.78112041  0.47881454  1
  Si  Si21  1  0.78110977  0.21888587  0.47885895  1
  Si  Si22  1  0.50001896  0.49999534  0.20108880  1
  Si  Si23  1  0.20979532  0.20978375  0.97059709  1
  Si  Si24  1  0.79018579  0.79017392  0.97066966  1
  Si  Si25  1  0.50002277  0.49998790  0.55255226  1
  O  O26  1  0.11115956  0.11128624  0.09908102  1
  O  O27  1  0.88872743  0.88884759  0.09899306  1
  O  O28  1  0.88413794  0.11575955  0.59878595  1
  O  O29  1  0.11577841  0.88411569  0.59879605  1
