# generated using pymatgen
data_LiICl5
_symmetry_space_group_name_H-M   'P 1'
_cell_length_a   5.85177986
_cell_length_b   14.96971524
_cell_length_c   4.84033581
_cell_angle_alpha   93.82039261
_cell_angle_beta   89.98513135
_cell_angle_gamma   90.02366511
_symmetry_Int_Tables_number   1
_chemical_formula_structural   LiICl5
_chemical_formula_sum   'Li2 I2 Cl10'
_cell_volume   423.06861404
_cell_formula_units_Z   2
loop_
 _symmetry_equiv_pos_site_id
 _symmetry_equiv_pos_as_xyz
  1  'x, y, z'
loop_
 _atom_site_type_symbol
 _atom_site_label
 _atom_site_symmetry_multiplicity
 _atom_site_fract_x
 _atom_site_fract_y
 _atom_site_fract_z
 _atom_site_occupancy
  Li  Li0  1  -0.08458532  0.24237100  0.74446997  1
  Li  Li1  1  0.41509984  0.25777431  0.25561473  1
  I  I2  1  0.01445595  -0.03869429  0.53368783  1
  I  I3  1  0.51427710  0.53854315  0.46634490  1
  Cl  Cl4  1  0.51407539  0.80945365  0.68050554  1
  Cl  Cl5  1  0.01442050  0.69069382  0.31937536  1
  Cl  Cl6  1  0.01403978  0.82018025  0.14063847  1
  Cl  Cl7  1  0.51413070  0.67982637  0.85886634  1
  Cl  Cl8  1  0.01450672  0.54088632  0.48339401  1
  Cl  Cl9  1  0.51453169  -0.04097072  0.51635837  1
  Cl  Cl10  1  0.51072815  0.24173370  0.74290272  1
  Cl  Cl11  1  0.01079211  0.25823142  0.25788465  1
  Cl  Cl12  1  0.01694766  0.08607379  -0.12456434  1
  Cl  Cl13  1  0.51657973  0.41389722  0.12452146  1
