# generated using pymatgen
data_Na2IN3
_symmetry_space_group_name_H-M   'P 1'
_cell_length_a   10.22577906
_cell_length_b   10.22551051
_cell_length_c   10.22571725
_cell_angle_alpha   89.99997640
_cell_angle_beta   89.99995431
_cell_angle_gamma   90.00028906
_symmetry_Int_Tables_number   1
_chemical_formula_structural   Na2IN3
_chemical_formula_sum   'Na16 I8 N24'
_cell_volume   1069.23996874
_cell_formula_units_Z   8
loop_
 _symmetry_equiv_pos_site_id
 _symmetry_equiv_pos_as_xyz
  1  'x, y, z'
loop_
 _atom_site_type_symbol
 _atom_site_label
 _atom_site_symmetry_multiplicity
 _atom_site_fract_x
 _atom_site_fract_y
 _atom_site_fract_z
 _atom_site_occupancy
  Na  Na0  1  0.28623484  0.71376336  0.21376448  1
  Na  Na1  1  0.71375762  0.21376787  0.28623369  1
  Na  Na2  1  0.28623556  0.28623131  0.28623274  1
  Na  Na3  1  0.21375761  0.28623049  0.71376124  1
  Na  Na4  1  0.71375896  0.78623440  0.21376220  1
  Na  Na5  1  0.78623982  0.21376411  0.71376739  1
  Na  Na6  1  0.78623669  0.78623386  0.78623296  1
  Na  Na7  1  0.21376067  0.71376779  0.78623768  1
  Na  Na8  1  0.53623528  0.96376218  0.03623858  1
  Na  Na9  1  0.03623514  0.53622900  0.96375738  1
  Na  Na10  1  0.96376470  0.96376616  0.96376612  1
  Na  Na11  1  0.96375856  0.03623091  0.53623507  1
  Na  Na12  1  0.46376380  0.53623194  0.03623937  1
  Na  Na13  1  0.03623746  0.46376784  0.53624028  1
  Na  Na14  1  0.46376501  0.46376787  0.46376607  1
  Na  Na15  1  0.53623774  0.03623125  0.46376254  1
  I  I16  1  0.87500828  0.62500303  0.37499266  1
  I  I17  1  0.37501886  0.12501280  0.87499515  1
  I  I18  1  0.37500698  0.87500149  0.62500989  1
  I  I19  1  0.62500118  0.37501099  0.87499006  1
  I  I20  1  0.87501030  0.37500696  0.12501765  1
  I  I21  1  0.12501290  0.87501170  0.37500251  1
  I  I22  1  0.12499913  0.12499987  0.12499685  1
  I  I23  1  0.62500064  0.62499901  0.62500198  1
  N  N24  1  0.25000049  0.82796220  0.00000122  1
  N  N25  1  0.82795084  0.00000031  0.25000113  1
  N  N26  1  0.17203997  0.49999939  0.25000111  1
  N  N27  1  0.49999889  0.25000147  0.17203377  1
  N  N28  1  0.25000094  0.17203732  0.49999887  1
  N  N29  1  0.00000073  0.25000099  0.82796626  1
  N  N30  1  0.49999908  0.74999846  0.32796043  1
  N  N31  1  0.74999886  0.32795641  0.50000077  1
  N  N32  1  0.74999930  0.67203878  -0.00000064  1
  N  N33  1  0.00000094  0.74999879  0.67203732  1
  N  N34  1  0.67203857  0.00000083  0.74999896  1
  N  N35  1  0.32794862  0.49999851  0.74999867  1
  N  N36  1  0.42204024  0.00000095  0.25000052  1
  N  N37  1  0.25000103  0.42203814  0.00000123  1
  N  N38  1  0.07795443  0.00000036  0.74999898  1
  N  N39  1  0.00000111  0.74999480  0.07795327  1
  N  N40  1  0.74999872  0.07795819  -0.00000084  1
  N  N41  1  0.00000061  0.25000216  0.42204855  1
  N  N42  1  0.49999868  0.75000013  0.92204067  1
  N  N43  1  0.92203085  0.49999900  0.74999911  1
  N  N44  1  0.24999966  0.57796231  0.49999842  1
  N  N45  1  0.57796050  0.49999843  0.25000088  1
  N  N46  1  0.49999923  0.24999651  0.57795604  1
  N  N47  1  0.74999997  0.92202936  0.50000074  1
