# generated using pymatgen
data_NaPBr2
_symmetry_space_group_name_H-M   'P 1'
_cell_length_a   4.39821615
_cell_length_b   5.84355711
_cell_length_c   10.08725282
_cell_angle_alpha   110.11322986
_cell_angle_beta   89.99998280
_cell_angle_gamma   90.00003572
_symmetry_Int_Tables_number   1
_chemical_formula_structural   NaPBr2
_chemical_formula_sum   'Na2 P2 Br4'
_cell_volume   243.44409214
_cell_formula_units_Z   2
loop_
 _symmetry_equiv_pos_site_id
 _symmetry_equiv_pos_as_xyz
  1  'x, y, z'
loop_
 _atom_site_type_symbol
 _atom_site_label
 _atom_site_symmetry_multiplicity
 _atom_site_fract_x
 _atom_site_fract_y
 _atom_site_fract_z
 _atom_site_occupancy
  Na  Na0  1  0.00000001  -0.04751777  0.42049604  1
  Na  Na1  1  0.50000000  0.54750594  0.57952496  1
  P  P2  1  0.00000002  0.56591887  0.83669475  1
  P  P3  1  0.49999996  -0.06591309  0.16327772  1
  Br  Br4  1  0.50000001  0.06980575  0.61944097  1
  Br  Br5  1  -0.00000014  -0.05507113  -0.03788463  1
  Br  Br6  1  0.00000000  0.43018440  0.38056584  1
  Br  Br7  1  0.50000015  0.55508703  0.03788436  1
