# generated using pymatgen
data_KSi12S7
_symmetry_space_group_name_H-M   'P 1'
_cell_length_a   9.45740904
_cell_length_b   9.45741207
_cell_length_c   9.45750520
_cell_angle_alpha   90.00072608
_cell_angle_beta   90.00066871
_cell_angle_gamma   90.00041833
_symmetry_Int_Tables_number   1
_chemical_formula_structural   KSi12S7
_chemical_formula_sum   'K2 Si24 S14'
_cell_volume   845.90399042
_cell_formula_units_Z   2
loop_
 _symmetry_equiv_pos_site_id
 _symmetry_equiv_pos_as_xyz
  1  'x, y, z'
loop_
 _atom_site_type_symbol
 _atom_site_label
 _atom_site_symmetry_multiplicity
 _atom_site_fract_x
 _atom_site_fract_y
 _atom_site_fract_z
 _atom_site_occupancy
  K  K0  1  0.50000142  0.50000249  0.50000018  1
  K  K1  1  0.00000150  0.00000073  0.00000125  1
  Si  Si2  1  0.33533049  0.93506732  0.66493358  1
  Si  Si3  1  0.33504969  0.66465213  0.93506012  1
  Si  Si4  1  0.06492562  0.66493246  0.66467697  1
  Si  Si5  1  0.66494225  0.33533786  0.93506494  1
  Si  Si6  1  0.93507001  0.33506084  0.66466600  1
  Si  Si7  1  0.66466863  0.06493601  0.66493766  1
  Si  Si8  1  0.56494864  0.83533771  0.83506805  1
  Si  Si9  1  0.83506836  0.56494150  0.83533510  1
  Si  Si10  1  0.83534927  0.83505712  0.56495157  1
  Si  Si11  1  0.93507777  0.66493183  0.33532397  1
  Si  Si12  1  0.66466276  0.93506534  0.33505912  1
  Si  Si13  1  0.66494455  0.66466225  0.06493506  1
  Si  Si14  1  0.83534053  0.16493825  0.43505612  1
  Si  Si15  1  0.83506356  0.43506101  0.16466305  1
  Si  Si16  1  0.56494450  0.16466561  0.16493449  1
  Si  Si17  1  0.43505829  0.83533322  0.16493081  1
  Si  Si18  1  0.16464869  0.83505192  0.43505130  1
  Si  Si19  1  0.16492915  0.56493513  0.16467412  1
  Si  Si20  1  0.06493281  0.33506530  0.33533203  1
  Si  Si21  1  0.33505455  0.33534626  0.06494140  1
  Si  Si22  1  0.33533544  0.06493981  0.33506471  1
  Si  Si23  1  0.16492993  0.43506671  0.83532758  1
  Si  Si24  1  0.43505486  0.16465998  0.83506208  1
  Si  Si25  1  0.16465896  0.16494221  0.56494558  1
  S  S26  1  -0.00000230  0.50000152  0.50000090  1
  S  S27  1  0.50000135  -0.00000164  0.50000102  1
  S  S28  1  0.50000170  0.50000101  -0.00000182  1
  S  S29  1  0.49999759  0.00000134  0.00000108  1
  S  S30  1  0.00000178  0.49999705  0.00000083  1
  S  S31  1  0.00000140  0.00000154  0.49999919  1
  S  S32  1  0.31504980  0.68495780  0.68495086  1
  S  S33  1  0.68494923  0.31504620  0.68495215  1
  S  S34  1  0.81505174  0.81505798  0.81505587  1
  S  S35  1  0.68495334  0.68495646  0.31504797  1
  S  S36  1  0.81505275  0.18494321  0.18494576  1
  S  S37  1  0.18495126  0.81505697  0.18494383  1
  S  S38  1  0.31505069  0.31504497  0.31504919  1
  S  S39  1  0.18494748  0.18494459  0.81505634  1
