# generated using pymatgen
data_LiP3S2
_symmetry_space_group_name_H-M   'P 1'
_cell_length_a   5.63076234
_cell_length_b   5.63074241
_cell_length_c   4.78894105
_cell_angle_alpha   90.00040994
_cell_angle_beta   90.00040193
_cell_angle_gamma   120.19764318
_symmetry_Int_Tables_number   1
_chemical_formula_structural   LiP3S2
_chemical_formula_sum   'Li1 P3 S2'
_cell_volume   131.23044342
_cell_formula_units_Z   1
loop_
 _symmetry_equiv_pos_site_id
 _symmetry_equiv_pos_as_xyz
  1  'x, y, z'
loop_
 _atom_site_type_symbol
 _atom_site_label
 _atom_site_symmetry_multiplicity
 _atom_site_fract_x
 _atom_site_fract_y
 _atom_site_fract_z
 _atom_site_occupancy
  Li  Li0  1  0.00000084  0.00000088  0.91150152  1
  P  P1  1  0.49999934  -0.00000581  0.00734871  1
  P  P2  1  0.00000116  0.50000286  0.00734924  1
  P  P3  1  0.50000276  0.50000622  0.00741517  1
  S  S4  1  0.33372659  0.66626693  0.34569164  1
  S  S5  1  0.66626931  0.33372892  0.34569372  1
