# generated using pymatgen
data_K(Br4N)3
_symmetry_space_group_name_H-M   'P 1'
_cell_length_a   9.59701296
_cell_length_b   9.59698806
_cell_length_c   9.59702932
_cell_angle_alpha   89.99761747
_cell_angle_beta   89.99749456
_cell_angle_gamma   90.01060793
_symmetry_Int_Tables_number   1
_chemical_formula_structural   K(Br4N)3
_chemical_formula_sum   'K2 Br24 N6'
_cell_volume   883.90959697
_cell_formula_units_Z   2
loop_
 _symmetry_equiv_pos_site_id
 _symmetry_equiv_pos_as_xyz
  1  'x, y, z'
loop_
 _atom_site_type_symbol
 _atom_site_label
 _atom_site_symmetry_multiplicity
 _atom_site_fract_x
 _atom_site_fract_y
 _atom_site_fract_z
 _atom_site_occupancy
  K  K0  1  0.49999907  0.49999885  0.49999836  1
  K  K1  1  -0.00000445  0.00000190  0.00000847  1
  Br  Br2  1  0.74209802  0.74006965  -0.00000251  1
  Br  Br3  1  0.25789366  0.25992057  -0.00000412  1
  Br  Br4  1  0.25788964  0.74008270  -0.00000443  1
  Br  Br5  1  0.74210981  0.25992162  -0.00000233  1
  Br  Br6  1  0.75992293  0.49999577  0.75788797  1
  Br  Br7  1  0.24008169  0.49999265  0.24210546  1
  Br  Br8  1  0.75992175  0.49999559  0.24210566  1
  Br  Br9  1  0.24007537  0.49999296  0.75789351  1
  Br  Br10  1  0.25992405  0.00000579  0.25789332  1
  Br  Br11  1  0.74008197  0.00000572  0.74210311  1
  Br  Br12  1  0.25991640  0.00000550  0.74211039  1
  Br  Br13  1  0.74007574  0.00000594  0.25789960  1
  Br  Br14  1  0.49999393  0.24211200  0.24008048  1
  Br  Br15  1  0.49999662  0.75789947  0.75992287  1
  Br  Br16  1  0.49999475  0.24210503  0.75991873  1
  Br  Br17  1  0.49999557  0.75789499  0.24007512  1
  Br  Br18  1  0.24210618  0.24007775  0.50000155  1
  Br  Br19  1  0.75789813  0.75992054  0.50000288  1
  Br  Br20  1  0.75789392  0.24008348  0.50000270  1
  Br  Br21  1  0.24211070  0.75992202  0.50000203  1
  Br  Br22  1  0.00000711  0.74210922  0.74008064  1
  Br  Br23  1  0.00000453  0.25789456  0.25992314  1
  Br  Br24  1  0.00000550  0.25788628  0.74007863  1
  Br  Br25  1  0.00000547  0.74209971  0.25992124  1
  N  N26  1  -0.00000128  0.49999749  0.00000353  1
  N  N27  1  -0.00000194  0.49999630  0.49999597  1
  N  N28  1  0.50000402  0.00000368  0.00000086  1
  N  N29  1  0.50000008  0.49999707  0.00000147  1
  N  N30  1  0.50000306  0.00000229  0.49999988  1
  N  N31  1  -0.00000200  0.00000290  0.49999582  1
