# generated using pymatgen
data_Li3BCl5
_symmetry_space_group_name_H-M   'P 1'
_cell_length_a   5.12755916
_cell_length_b   10.71299587
_cell_length_c   7.17883999
_cell_angle_alpha   95.04372660
_cell_angle_beta   89.56470964
_cell_angle_gamma   89.20872100
_symmetry_Int_Tables_number   1
_chemical_formula_structural   Li3BCl5
_chemical_formula_sum   'Li6 B2 Cl10'
_cell_volume   392.76481923
_cell_formula_units_Z   2
loop_
 _symmetry_equiv_pos_site_id
 _symmetry_equiv_pos_as_xyz
  1  'x, y, z'
loop_
 _atom_site_type_symbol
 _atom_site_label
 _atom_site_symmetry_multiplicity
 _atom_site_fract_x
 _atom_site_fract_y
 _atom_site_fract_z
 _atom_site_occupancy
  Li  Li0  1  0.31719946  0.26504281  0.14148960  1
  Li  Li1  1  0.35609637  0.63913919  -0.20940820  1
  Li  Li2  1  0.76698288  -0.07230943  -0.02683936  1
  Li  Li3  1  0.15400158  0.00184745  0.70812742  1
  Li  Li4  1  -0.01819299  0.05399406  0.34306480  1
  Li  Li5  1  -0.06504671  0.62768059  0.51983239  1
  B  B6  1  0.41744251  0.04837103  0.45582228  1
  B  B7  1  -0.17334313  0.46186261  -0.01986060  1
  Cl  Cl8  1  0.48276957  0.59904857  0.49319913  1
  Cl  Cl9  1  0.04187066  0.79554187  0.76935311  1
  Cl  Cl10  1  0.57766520  0.20185597  0.38913188  1
  Cl  Cl11  1  0.61878700  0.03094805  0.69457259  1
  Cl  Cl12  1  0.60523733  0.91468133  0.28829045  1
  Cl  Cl13  1  0.09147784  0.08632789  0.03136792  1
  Cl  Cl14  1  0.01973598  0.43948912  0.19618395  1
  Cl  Cl15  1  0.04986174  0.46736300  0.77420241  1
  Cl  Cl16  1  -0.35701088  0.61118526  0.03440207  1
  Cl  Cl17  1  -0.38553439  0.32793063  0.91706816  1
