# generated using pymatgen
data_K3BI4
_symmetry_space_group_name_H-M   'P 1'
_cell_length_a   6.43325364
_cell_length_b   6.34918761
_cell_length_c   9.20800373
_cell_angle_alpha   92.77242360
_cell_angle_beta   86.92495134
_cell_angle_gamma   88.39135326
_symmetry_Int_Tables_number   1
_chemical_formula_structural   K3BI4
_chemical_formula_sum   'K3 B1 I4'
_cell_volume   374.95100912
_cell_formula_units_Z   1
loop_
 _symmetry_equiv_pos_site_id
 _symmetry_equiv_pos_as_xyz
  1  'x, y, z'
loop_
 _atom_site_type_symbol
 _atom_site_label
 _atom_site_symmetry_multiplicity
 _atom_site_fract_x
 _atom_site_fract_y
 _atom_site_fract_z
 _atom_site_occupancy
  K  K0  1  0.05597850  0.21574086  0.76084616  1
  K  K1  1  0.12352461  0.16491044  0.34355598  1
  K  K2  1  0.59001059  -0.30512832  0.39348261  1
  B  B3  1  0.25737333  -0.23180814  0.14847372  1
  I  I4  1  0.58971441  0.20082055  0.55107118  1
  I  I5  1  0.08030039  0.68521663  0.54068133  1
  I  I6  1  -0.06680884  0.83333340  0.05184786  1
  I  I7  1  0.36990701  0.43691457  0.05003182  1
