# generated using pymatgen
data_LiCBr3
_symmetry_space_group_name_H-M   'P 1'
_cell_length_a   6.51940416
_cell_length_b   6.51953805
_cell_length_c   9.77230924
_cell_angle_alpha   89.98839196
_cell_angle_beta   90.00536301
_cell_angle_gamma   120.00486956
_symmetry_Int_Tables_number   1
_chemical_formula_structural   LiCBr3
_chemical_formula_sum   'Li2 C2 Br6'
_cell_volume   359.69238366
_cell_formula_units_Z   2
loop_
 _symmetry_equiv_pos_site_id
 _symmetry_equiv_pos_as_xyz
  1  'x, y, z'
loop_
 _atom_site_type_symbol
 _atom_site_label
 _atom_site_symmetry_multiplicity
 _atom_site_fract_x
 _atom_site_fract_y
 _atom_site_fract_z
 _atom_site_occupancy
  Li  Li0  1  -0.00013117  -0.00007624  0.25956464  1
  Li  Li1  1  0.00012959  0.00007532  0.74043586  1
  C  C2  1  0.66654147  0.33327866  0.31910883  1
  C  C3  1  0.33345684  0.66672068  0.68090192  1
  Br  Br4  1  0.36419785  0.39343767  0.77360353  1
  Br  Br5  1  0.60678223  0.97084315  0.77348800  1
  Br  Br6  1  0.97069638  0.36402574  0.22642043  1
  Br  Br7  1  0.63580071  0.60656972  0.22639339  1
  Br  Br8  1  0.39321130  0.02914645  0.22650769  1
  Br  Br9  1  0.02931480  0.63597885  0.77357570  1
