# generated using pymatgen
data_Na2SBr4
_symmetry_space_group_name_H-M   'P 1'
_cell_length_a   5.04331070
_cell_length_b   5.04331015
_cell_length_c   8.21791841
_cell_angle_alpha   90.00000159
_cell_angle_beta   90.00000360
_cell_angle_gamma   90.00009872
_symmetry_Int_Tables_number   1
_chemical_formula_structural   Na2SBr4
_chemical_formula_sum   'Na2 S1 Br4'
_cell_volume   209.02259057
_cell_formula_units_Z   1
loop_
 _symmetry_equiv_pos_site_id
 _symmetry_equiv_pos_as_xyz
  1  'x, y, z'
loop_
 _atom_site_type_symbol
 _atom_site_label
 _atom_site_symmetry_multiplicity
 _atom_site_fract_x
 _atom_site_fract_y
 _atom_site_fract_z
 _atom_site_occupancy
  Na  Na0  1  0.00000003  0.00000002  0.21464202  1
  Na  Na1  1  -0.00000001  -0.00000000  0.79644162  1
  S  S2  1  0.50000001  0.50000001  0.54457138  1
  Br  Br3  1  -0.00000003  0.49999999  0.50001155  1
  Br  Br4  1  0.50000001  0.00000000  0.00341094  1
  Br  Br5  1  0.00000000  0.50000000  0.00341094  1
  Br  Br6  1  0.49999999  -0.00000002  0.50001154  1
