# generated using pymatgen
data_KBrO2
_symmetry_space_group_name_H-M   'P 1'
_cell_length_a   5.14670202
_cell_length_b   5.14753372
_cell_length_c   5.55182342
_cell_angle_alpha   90.00000240
_cell_angle_beta   89.99999893
_cell_angle_gamma   90.00001452
_symmetry_Int_Tables_number   1
_chemical_formula_structural   KBrO2
_chemical_formula_sum   'K2 Br2 O4'
_cell_volume   147.08347069
_cell_formula_units_Z   2
loop_
 _symmetry_equiv_pos_site_id
 _symmetry_equiv_pos_as_xyz
  1  'x, y, z'
loop_
 _atom_site_type_symbol
 _atom_site_label
 _atom_site_symmetry_multiplicity
 _atom_site_fract_x
 _atom_site_fract_y
 _atom_site_fract_z
 _atom_site_occupancy
  K  K0  1  0.50000000  0.49999995  0.00006424  1
  K  K1  1  0.00000001  0.00000003  -0.00006502  1
  Br  Br2  1  -0.00000002  0.50000008  0.45730983  1
  Br  Br3  1  0.50000001  -0.00000007  0.54270825  1
  O  O4  1  -0.00000004  0.50000019  0.14242631  1
  O  O5  1  0.50000004  -0.00000021  0.85755716  1
  O  O6  1  0.49999998  0.49999996  0.50003580  1
  O  O7  1  0.00000001  0.00000007  0.49996342  1
