# generated using pymatgen
data_Li3CI2
_symmetry_space_group_name_H-M   'P 1'
_cell_length_a   6.74891843
_cell_length_b   6.74891536
_cell_length_c   6.91030150
_cell_angle_alpha   90.00999697
_cell_angle_beta   89.99707517
_cell_angle_gamma   119.99565241
_symmetry_Int_Tables_number   1
_chemical_formula_structural   Li3CI2
_chemical_formula_sum   'Li6 C2 I4'
_cell_volume   272.59306702
_cell_formula_units_Z   2
loop_
 _symmetry_equiv_pos_site_id
 _symmetry_equiv_pos_as_xyz
  1  'x, y, z'
loop_
 _atom_site_type_symbol
 _atom_site_label
 _atom_site_symmetry_multiplicity
 _atom_site_fract_x
 _atom_site_fract_y
 _atom_site_fract_z
 _atom_site_occupancy
  Li  Li0  1  0.75137402  0.00120996  0.75000004  1
  Li  Li1  1  0.00121032  0.75137449  0.24999269  1
  Li  Li2  1  0.75017274  0.99878857  0.25000392  1
  Li  Li3  1  0.99878863  0.75017304  0.74999574  1
  Li  Li4  1  0.24982540  0.24862963  0.75000685  1
  Li  Li5  1  0.24862971  0.24982559  0.25000088  1
  C  C6  1  -0.00000017  -0.00000076  0.49999997  1
  C  C7  1  -0.00000313  -0.00000238  0.00000010  1
  I  I8  1  0.33333997  0.66666701  0.00001042  1
  I  I9  1  0.66666089  0.33332935  0.49998615  1
  I  I10  1  0.33332797  0.66666744  0.50001383  1
  I  I11  1  0.66667364  0.33333806  -0.00001059  1
