# generated using pymatgen
data_K2(BBr8)3
_symmetry_space_group_name_H-M   'P 1'
_cell_length_a   11.34127655
_cell_length_b   11.46924675
_cell_length_c   12.01505046
_cell_angle_alpha   113.99115476
_cell_angle_beta   101.24733776
_cell_angle_gamma   103.74580943
_symmetry_Int_Tables_number   1
_chemical_formula_structural   K2(BBr8)3
_chemical_formula_sum   'K2 B3 Br24'
_cell_volume   1309.91220671
_cell_formula_units_Z   1
loop_
 _symmetry_equiv_pos_site_id
 _symmetry_equiv_pos_as_xyz
  1  'x, y, z'
loop_
 _atom_site_type_symbol
 _atom_site_label
 _atom_site_symmetry_multiplicity
 _atom_site_fract_x
 _atom_site_fract_y
 _atom_site_fract_z
 _atom_site_occupancy
  K  K0  1  -0.16114390  -0.01925340  0.01135389  1
  K  K1  1  0.37240042  0.35896369  0.35317557  1
  B  B2  1  0.06951725  0.26604012  0.48936518  1
  B  B3  1  0.28366593  0.47223413  0.06735182  1
  B  B4  1  0.52152682  0.04541499  0.21174734  1
  Br  Br5  1  0.11557009  -0.09749877  0.95123918  1
  Br  Br6  1  0.52503265  -0.02246311  0.03051761  1
  Br  Br7  1  0.87600267  0.19215655  -0.13492136  1
  Br  Br8  1  0.01519394  0.08002396  0.48082399  1
  Br  Br9  1  0.10629122  0.46559154  -0.01254449  1
  Br  Br10  1  -0.11582366  0.84850876  0.21355969  1
  Br  Br11  1  0.77786921  0.65328773  0.00014217  1
  Br  Br12  1  0.66368900  0.01706379  0.76672880  1
  Br  Br13  1  0.05579157  0.25184142  0.31230972  1
  Br  Br14  1  0.33868779  0.01924250  0.21754363  1
  Br  Br15  1  0.28249889  0.28756332  0.04195047  1
  Br  Br16  1  -0.04869195  0.81087677  0.74561215  1
  Br  Br17  1  0.40829671  0.55125414  -0.00097054  1
  Br  Br18  1  0.60240224  0.96022846  0.30374612  1
  Br  Br19  1  0.97595391  0.37870447  0.57662409  1
  Br  Br20  1  0.58188170  0.64849429  0.37940941  1
  Br  Br21  1  0.62401075  0.33777468  0.55432522  1
  Br  Br22  1  0.33947007  0.60973175  0.62750246  1
  Br  Br23  1  0.32971870  0.60637319  0.26486196  1
  Br  Br24  1  0.26484660  0.35223377  0.60169237  1
  Br  Br25  1  0.80583317  0.68058009  0.47820682  1
  Br  Br26  1  0.62726588  0.25614267  0.30487514  1
  Br  Br27  1  0.61216269  0.40195069  0.77074284  1
  Br  Br28  1  0.40007965  0.83693780  0.64302875  1
