# generated using pymatgen
data_NaBBr2
_symmetry_space_group_name_H-M   'P 1'
_cell_length_a   3.68768995
_cell_length_b   7.33995265
_cell_length_c   8.60886779
_cell_angle_alpha   90.00001761
_cell_angle_beta   90.00073343
_cell_angle_gamma   90.00009268
_symmetry_Int_Tables_number   1
_chemical_formula_structural   NaBBr2
_chemical_formula_sum   'Na2 B2 Br4'
_cell_volume   233.02026714
_cell_formula_units_Z   2
loop_
 _symmetry_equiv_pos_site_id
 _symmetry_equiv_pos_as_xyz
  1  'x, y, z'
loop_
 _atom_site_type_symbol
 _atom_site_label
 _atom_site_symmetry_multiplicity
 _atom_site_fract_x
 _atom_site_fract_y
 _atom_site_fract_z
 _atom_site_occupancy
  Na  Na0  1  0.49999998  0.49999998  0.20836584  1
  Na  Na1  1  0.50000000  0.49999999  0.70836588  1
  B  B2  1  0.49999298  0.00000012  0.91551284  1
  B  B3  1  0.49999016  0.00000011  0.41551234  1
  Br  Br4  1  -0.00000017  0.49999997  -0.04054969  1
  Br  Br5  1  0.00000972  -0.00000007  0.24894897  1
  Br  Br6  1  -0.00000015  0.49999997  0.45945037  1
  Br  Br7  1  0.00000748  -0.00000007  0.74894952  1
