# generated using pymatgen
data_NaP2O
_symmetry_space_group_name_H-M   'P 1'
_cell_length_a   4.66361345
_cell_length_b   4.66360667
_cell_length_c   10.50471535
_cell_angle_alpha   89.99949357
_cell_angle_beta   90.00009134
_cell_angle_gamma   90.00116376
_symmetry_Int_Tables_number   1
_chemical_formula_structural   NaP2O
_chemical_formula_sum   'Na4 P8 O4'
_cell_volume   228.46977261
_cell_formula_units_Z   4
loop_
 _symmetry_equiv_pos_site_id
 _symmetry_equiv_pos_as_xyz
  1  'x, y, z'
loop_
 _atom_site_type_symbol
 _atom_site_label
 _atom_site_symmetry_multiplicity
 _atom_site_fract_x
 _atom_site_fract_y
 _atom_site_fract_z
 _atom_site_occupancy
  Na  Na0  1  -0.00000001  0.00000000  0.50000064  1
  Na  Na1  1  0.50000000  0.50000001  0.50000064  1
  Na  Na2  1  0.49999999  0.49999998  0.00000117  1
  Na  Na3  1  -0.00000000  0.00000000  0.00000117  1
  P  P4  1  0.75011022  0.25011030  0.24951751  1
  P  P5  1  0.24988960  0.74988950  0.75048753  1
  P  P6  1  0.24988979  0.74988986  0.24951738  1
  P  P7  1  0.75011043  0.25011033  0.75048764  1
  P  P8  1  0.25022121  0.24977886  0.24958438  1
  P  P9  1  0.74977877  0.75022131  0.24958433  1
  P  P10  1  0.74977884  0.75022111  0.75042076  1
  P  P11  1  0.25022122  0.24977873  0.75042079  1
  O  O12  1  -0.00000001  0.50000000  0.50000283  1
  O  O13  1  0.49999999  0.00000001  0.50000066  1
  O  O14  1  -0.00000001  0.50000000  -0.00001431  1
  O  O15  1  0.49999999  -0.00000002  -0.00001315  1
