# generated using pymatgen
data_Li5S5I6
_symmetry_space_group_name_H-M   'P 1'
_cell_length_a   12.13596728
_cell_length_b   12.13563600
_cell_length_c   8.00619301
_cell_angle_alpha   89.98450813
_cell_angle_beta   89.99768450
_cell_angle_gamma   90.00125790
_symmetry_Int_Tables_number   1
_chemical_formula_structural   Li5S5I6
_chemical_formula_sum   'Li10 S10 I12'
_cell_volume   1179.13349835
_cell_formula_units_Z   2
loop_
 _symmetry_equiv_pos_site_id
 _symmetry_equiv_pos_as_xyz
  1  'x, y, z'
loop_
 _atom_site_type_symbol
 _atom_site_label
 _atom_site_symmetry_multiplicity
 _atom_site_fract_x
 _atom_site_fract_y
 _atom_site_fract_z
 _atom_site_occupancy
  Li  Li0  1  0.76489393  0.39086109  0.55503130  1
  Li  Li1  1  0.23505837  0.60910182  0.55493510  1
  Li  Li2  1  0.50000277  0.49993556  0.23695410  1
  Li  Li3  1  0.60894825  0.76489543  0.55498515  1
  Li  Li4  1  0.39096402  0.23500154  0.55511136  1
  Li  Li5  1  0.39109204  0.76535679  0.05545140  1
  Li  Li6  1  0.60891080  0.23454849  0.05555823  1
  Li  Li7  1  0.49995930  0.49994148  0.73741343  1
  Li  Li8  1  0.76528786  0.60888929  0.05542026  1
  Li  Li9  1  0.23467531  0.39105463  0.05547530  1
  S  S10  1  0.00027701  0.00032571  0.45451787  1
  S  S11  1  0.03856384  0.64919653  0.59588943  1
  S  S12  1  0.64930339  0.96127705  0.59613229  1
  S  S13  1  0.96138172  0.35050049  0.59597224  1
  S  S14  1  0.35066118  0.03864167  0.59638554  1
  S  S15  1  0.00045716  0.00147671  0.21814563  1
  S  S16  1  0.64933321  0.03830376  0.09777561  1
  S  S17  1  0.96154769  0.64924528  0.09725898  1
  S  S18  1  0.35050444  0.96162505  0.09752921  1
  S  S19  1  0.03845860  0.35040061  0.09738173  1
  I  I20  1  0.71618797  0.59573265  0.71218715  1
  I  I21  1  0.00001803  0.49987047  0.41193551  1
  I  I22  1  0.28374107  0.40420879  0.71223299  1
  I  I23  1  0.40411466  0.71621794  0.71225095  1
  I  I24  1  0.49993353  -0.00000016  0.41227935  1
  I  I25  1  0.59586738  0.28369571  0.71229735  1
  I  I26  1  0.59588454  0.71599315  0.21205911  1
  I  I27  1  0.49996755  0.00002466  -0.08676476  1
  I  I28  1  0.40407140  0.28390849  0.21213284  1
  I  I29  1  0.71606831  0.40401925  0.21203040  1
  I  I30  1  -0.00006455  0.49983694  -0.08706672  1
  I  I31  1  0.28392921  0.59591314  0.21194681  1
