# generated using pymatgen
data_NaI3O4
_symmetry_space_group_name_H-M   'P 1'
_cell_length_a   7.40375027
_cell_length_b   4.51355644
_cell_length_c   7.93962895
_cell_angle_alpha   89.82256582
_cell_angle_beta   48.14633014
_cell_angle_gamma   89.68081375
_symmetry_Int_Tables_number   1
_chemical_formula_structural   NaI3O4
_chemical_formula_sum   'Na1 I3 O4'
_cell_volume   197.62120737
_cell_formula_units_Z   1
loop_
 _symmetry_equiv_pos_site_id
 _symmetry_equiv_pos_as_xyz
  1  'x, y, z'
loop_
 _atom_site_type_symbol
 _atom_site_label
 _atom_site_symmetry_multiplicity
 _atom_site_fract_x
 _atom_site_fract_y
 _atom_site_fract_z
 _atom_site_occupancy
  Na  Na0  1  0.50036848  0.73946385  -0.00015053  1
  I  I1  1  0.00012670  0.12896595  -0.00000456  1
  I  I2  1  0.77608065  0.68645151  0.45952883  1
  I  I3  1  0.22290436  0.68720824  0.54083553  1
  O  O4  1  0.17146763  0.11074234  0.64219847  1
  O  O5  1  -0.17134496  0.10984455  0.35782649  1
  O  O6  1  0.49988411  0.23887062  -0.08420405  1
  O  O7  1  0.50051304  0.23830201  0.08396981  1
