# generated using pymatgen
data_NaP3O
_symmetry_space_group_name_H-M   'P 1'
_cell_length_a   5.48064179
_cell_length_b   5.48064874
_cell_length_c   6.04359066
_cell_angle_alpha   90.00000273
_cell_angle_beta   90.00000232
_cell_angle_gamma   90.00000011
_symmetry_Int_Tables_number   1
_chemical_formula_structural   NaP3O
_chemical_formula_sum   'Na2 P6 O2'
_cell_volume   181.53418866
_cell_formula_units_Z   2
loop_
 _symmetry_equiv_pos_site_id
 _symmetry_equiv_pos_as_xyz
  1  'x, y, z'
loop_
 _atom_site_type_symbol
 _atom_site_label
 _atom_site_symmetry_multiplicity
 _atom_site_fract_x
 _atom_site_fract_y
 _atom_site_fract_z
 _atom_site_occupancy
  Na  Na0  1  0.00000006  -0.00000006  0.50000510  1
  Na  Na1  1  0.50000000  0.50000001  0.50000511  1
  P  P2  1  0.36144325  0.63855717  0.00000259  1
  P  P3  1  0.86144305  0.86144312  0.00000229  1
  P  P4  1  0.13855733  0.13855650  0.00000326  1
  P  P5  1  -0.00000008  0.49999998  0.16197606  1
  P  P6  1  0.50000002  0.00000007  0.83800122  1
  P  P7  1  0.63855665  0.36144292  0.00000259  1
  O  O8  1  -0.00000015  0.50000013  0.41869372  1
  O  O9  1  0.49999987  0.00000015  0.58130807  1
