# generated using pymatgen
data_LiIBr2
_symmetry_space_group_name_H-M   'P 1'
_cell_length_a   8.22126471
_cell_length_b   8.22128415
_cell_length_c   8.22128158
_cell_angle_alpha   89.99997490
_cell_angle_beta   89.99991274
_cell_angle_gamma   90.00025455
_symmetry_Int_Tables_number   1
_chemical_formula_structural   LiIBr2
_chemical_formula_sum   'Li4 I4 Br8'
_cell_volume   555.67110486
_cell_formula_units_Z   4
loop_
 _symmetry_equiv_pos_site_id
 _symmetry_equiv_pos_as_xyz
  1  'x, y, z'
loop_
 _atom_site_type_symbol
 _atom_site_label
 _atom_site_symmetry_multiplicity
 _atom_site_fract_x
 _atom_site_fract_y
 _atom_site_fract_z
 _atom_site_occupancy
  Li  Li0  1  0.00000006  -0.00000005  0.00000002  1
  Li  Li1  1  0.49999998  -0.00000004  0.49999994  1
  Li  Li2  1  0.49999999  0.50000001  -0.00000001  1
  Li  Li3  1  0.00000007  0.50000002  0.49999997  1
  I  I4  1  0.49999996  0.50000001  0.49999997  1
  I  I5  1  0.49999993  0.00000000  -0.00000003  1
  I  I6  1  -0.00000003  0.49999998  0.00000003  1
  I  I7  1  -0.00000005  0.00000003  0.50000001  1
  Br  Br8  1  0.17015714  0.32982491  0.67017734  1
  Br  Br9  1  0.67017852  0.17016049  0.32982750  1
  Br  Br10  1  0.17016644  0.17017256  0.17017022  1
  Br  Br11  1  0.32982029  0.67016912  0.17016124  1
  Br  Br12  1  0.82984287  0.67017516  0.32982270  1
  Br  Br13  1  0.32982151  0.82983941  0.67017250  1
  Br  Br14  1  0.82983361  0.82982738  0.82982983  1
  Br  Br15  1  0.67017971  0.32983099  0.82983878  1
