# generated using pymatgen
data_Li2SI3
_symmetry_space_group_name_H-M   'P 1'
_cell_length_a   8.45037035
_cell_length_b   8.45040668
_cell_length_c   6.65825474
_cell_angle_alpha   90.00138840
_cell_angle_beta   89.98567493
_cell_angle_gamma   120.00502512
_symmetry_Int_Tables_number   1
_chemical_formula_structural   Li2SI3
_chemical_formula_sum   'Li4 S2 I6'
_cell_volume   411.73935698
_cell_formula_units_Z   2
loop_
 _symmetry_equiv_pos_site_id
 _symmetry_equiv_pos_as_xyz
  1  'x, y, z'
loop_
 _atom_site_type_symbol
 _atom_site_label
 _atom_site_symmetry_multiplicity
 _atom_site_fract_x
 _atom_site_fract_y
 _atom_site_fract_z
 _atom_site_occupancy
  Li  Li0  1  0.33329982  0.66664176  0.49928939  1
  Li  Li1  1  0.66670017  0.33335824  0.50071049  1
  Li  Li2  1  0.66662678  0.33332922  0.99928795  1
  Li  Li3  1  0.33337320  0.66667075  0.00071221  1
  S  S4  1  0.00000002  0.00000002  0.49995579  1
  S  S5  1  0.00000001  0.00000002  0.00004412  1
  I  I6  1  -0.00032811  0.49983477  0.25000501  1
  I  I7  1  0.50017026  0.00033369  0.24999934  1
  I  I8  1  0.50016796  0.49983542  0.24999827  1
  I  I9  1  0.49982973  -0.00033371  0.75000064  1
  I  I10  1  0.00032810  0.50016523  0.74999503  1
  I  I11  1  0.49983204  0.50016458  0.75000177  1
