# generated using pymatgen
data_Na4BeI3
_symmetry_space_group_name_H-M   'P 1'
_cell_length_a   7.98256746
_cell_length_b   7.98257401
_cell_length_c   7.98257647
_cell_angle_alpha   89.99999992
_cell_angle_beta   90.00000200
_cell_angle_gamma   89.99999951
_symmetry_Int_Tables_number   1
_chemical_formula_structural   Na4BeI3
_chemical_formula_sum   'Na8 Be2 I6'
_cell_volume   508.66123148
_cell_formula_units_Z   2
loop_
 _symmetry_equiv_pos_site_id
 _symmetry_equiv_pos_as_xyz
  1  'x, y, z'
loop_
 _atom_site_type_symbol
 _atom_site_label
 _atom_site_symmetry_multiplicity
 _atom_site_fract_x
 _atom_site_fract_y
 _atom_site_fract_z
 _atom_site_occupancy
  Na  Na0  1  0.75000002  0.75000003  0.75000003  1
  Na  Na1  1  0.24999995  0.75000004  0.24999997  1
  Na  Na2  1  0.75000002  0.24999995  0.24999998  1
  Na  Na3  1  0.24999995  0.24999993  0.75000005  1
  Na  Na4  1  0.24999999  0.24999997  0.24999998  1
  Na  Na5  1  0.75000007  0.75000007  0.24999996  1
  Na  Na6  1  0.75000006  0.24999996  0.75000003  1
  Na  Na7  1  0.24999999  0.75000005  0.75000002  1
  Be  Be8  1  0.00000001  0.00000001  -0.00000003  1
  Be  Be9  1  0.49999992  0.50000000  0.49999997  1
  I  I10  1  0.00000001  0.50000000  0.00000000  1
  I  I11  1  0.50000000  0.00000000  0.00000001  1
  I  I12  1  -0.00000000  0.50000001  0.50000001  1
  I  I13  1  0.00000001  -0.00000000  0.50000001  1
  I  I14  1  0.50000001  -0.00000000  0.50000000  1
  I  I15  1  0.50000000  0.50000000  0.00000000  1
