# generated using pymatgen
data_Li5BrCl2
_symmetry_space_group_name_H-M   'P 1'
_cell_length_a   6.18718301
_cell_length_b   6.18728666
_cell_length_c   8.23604676
_cell_angle_alpha   89.99962354
_cell_angle_beta   90.00044672
_cell_angle_gamma   89.99989319
_symmetry_Int_Tables_number   1
_chemical_formula_structural   Li5BrCl2
_chemical_formula_sum   'Li10 Br2 Cl4'
_cell_volume   315.29131152
_cell_formula_units_Z   2
loop_
 _symmetry_equiv_pos_site_id
 _symmetry_equiv_pos_as_xyz
  1  'x, y, z'
loop_
 _atom_site_type_symbol
 _atom_site_label
 _atom_site_symmetry_multiplicity
 _atom_site_fract_x
 _atom_site_fract_y
 _atom_site_fract_z
 _atom_site_occupancy
  Li  Li0  1  0.00001697  0.50000051  0.24732869  1
  Li  Li1  1  0.77916958  0.72004799  -0.03300231  1
  Li  Li2  1  0.22083188  0.27995112  -0.03301140  1
  Li  Li3  1  0.77990518  0.27933487  0.96619838  1
  Li  Li4  1  0.22009471  0.72066702  0.96618901  1
  Li  Li5  1  0.50001534  -0.00000157  0.74732858  1
  Li  Li6  1  0.27995113  0.77916612  0.46700008  1
  Li  Li7  1  0.72004446  0.22083449  0.46698740  1
  Li  Li8  1  0.27933383  0.22009597  0.46619868  1
  Li  Li9  1  0.72066289  0.77990270  0.46618795  1
  Br  Br10  1  -0.00000469  0.50000041  0.56342416  1
  Br  Br11  1  0.49999820  0.00000186  0.06342441  1
  Cl  Cl12  1  0.50000098  0.50000074  0.83451859  1
  Cl  Cl13  1  -0.00000832  -0.00000060  0.83404235  1
  Cl  Cl14  1  0.49998702  0.49999990  0.33451988  1
  Cl  Cl15  1  0.00000085  -0.00000154  0.33404188  1
