# generated using pymatgen
data_NaLiI2
_symmetry_space_group_name_H-M   'P 1'
_cell_length_a   4.30908970
_cell_length_b   4.30908970
_cell_length_c   8.06815880
_cell_angle_alpha   90.00000382
_cell_angle_beta   90.00000336
_cell_angle_gamma   120.00224298
_symmetry_Int_Tables_number   1
_chemical_formula_structural   NaLiI2
_chemical_formula_sum   'Na1 Li1 I2'
_cell_volume   129.73773834
_cell_formula_units_Z   1
loop_
 _symmetry_equiv_pos_site_id
 _symmetry_equiv_pos_as_xyz
  1  'x, y, z'
loop_
 _atom_site_type_symbol
 _atom_site_label
 _atom_site_symmetry_multiplicity
 _atom_site_fract_x
 _atom_site_fract_y
 _atom_site_fract_z
 _atom_site_occupancy
  Na  Na0  1  -0.00000340  0.00000340  0.00000000  1
  Li  Li1  1  -0.00000352  0.00000353  0.50000000  1
  I  I2  1  0.33333678  0.66666320  0.73832005  1
  I  I3  1  0.33333680  0.66666322  0.26167995  1
