# generated using pymatgen
data_NaSiI2
_symmetry_space_group_name_H-M   'P 1'
_cell_length_a   7.74628431
_cell_length_b   7.74628428
_cell_length_c   7.67256150
_cell_angle_alpha   89.99998376
_cell_angle_beta   89.99996729
_cell_angle_gamma   89.99987073
_symmetry_Int_Tables_number   1
_chemical_formula_structural   NaSiI2
_chemical_formula_sum   'Na4 Si4 I8'
_cell_volume   460.39144193
_cell_formula_units_Z   4
loop_
 _symmetry_equiv_pos_site_id
 _symmetry_equiv_pos_as_xyz
  1  'x, y, z'
loop_
 _atom_site_type_symbol
 _atom_site_label
 _atom_site_symmetry_multiplicity
 _atom_site_fract_x
 _atom_site_fract_y
 _atom_site_fract_z
 _atom_site_occupancy
  Na  Na0  1  -0.00000016  0.49999991  -0.00000001  1
  Na  Na1  1  -0.00000016  0.49999992  0.49999999  1
  Na  Na2  1  0.49999998  0.00000010  0.49999999  1
  Na  Na3  1  0.49999999  0.00000009  -0.00000001  1
  Si  Si4  1  0.49999995  0.50000016  0.50000007  1
  Si  Si5  1  0.00000012  -0.00000020  -0.00000004  1
  Si  Si6  1  0.00000012  -0.00000019  0.50000001  1
  Si  Si7  1  0.49999995  0.50000015  0.00000003  1
  I  I8  1  0.24891487  0.25108518  0.74999997  1
  I  I9  1  0.75108517  0.74891492  0.25000002  1
  I  I10  1  0.25108517  0.75108507  0.74999981  1
  I  I11  1  0.74891491  0.24891484  0.25000018  1
  I  I12  1  0.25108517  0.75108508  0.24999981  1
  I  I13  1  0.74891490  0.24891484  0.75000018  1
  I  I14  1  0.24891487  0.25108519  0.24999997  1
  I  I15  1  0.75108517  0.74891491  0.75000003  1
