# generated using pymatgen
data_Na4S3I
_symmetry_space_group_name_H-M   'P 1'
_cell_length_a   8.97455605
_cell_length_b   7.31090811
_cell_length_c   7.39623699
_cell_angle_alpha   89.99448450
_cell_angle_beta   70.99667670
_cell_angle_gamma   89.99760700
_symmetry_Int_Tables_number   1
_chemical_formula_structural   Na4S3I
_chemical_formula_sum   'Na8 S6 I2'
_cell_volume   458.83496704
_cell_formula_units_Z   2
loop_
 _symmetry_equiv_pos_site_id
 _symmetry_equiv_pos_as_xyz
  1  'x, y, z'
loop_
 _atom_site_type_symbol
 _atom_site_label
 _atom_site_symmetry_multiplicity
 _atom_site_fract_x
 _atom_site_fract_y
 _atom_site_fract_z
 _atom_site_occupancy
  Na  Na0  1  0.68285626  -0.12783697  0.07620467  1
  Na  Na1  1  -0.18292155  0.37223200  -0.07613860  1
  Na  Na2  1  0.83136705  0.28637902  0.43664737  1
  Na  Na3  1  0.42547906  0.16567539  0.82313073  1
  Na  Na4  1  0.05009730  0.00897582  0.65486594  1
  Na  Na5  1  0.07455052  0.66574742  0.17686650  1
  Na  Na6  1  0.66862189  0.78638556  0.56334529  1
  Na  Na7  1  0.45005415  0.50900277  0.34506769  1
  S  S8  1  0.51960759  0.10950157  0.39931326  1
  S  S9  1  -0.01962797  0.60951291  0.60077595  1
  S  S10  1  0.73340877  0.07423677  0.75460235  1
  S  S11  1  0.36404442  0.89927445  0.47363465  1
  S  S12  1  0.76653033  0.57421006  0.24541975  1
  S  S13  1  0.13590224  0.39919286  0.52627657  1
  I  I14  1  0.42676103  0.58378468  -0.07319404  1
  I  I15  1  0.07326894  0.08372569  0.07318192  1
