# generated using pymatgen
data_Li3BrO10
_symmetry_space_group_name_H-M   'P 1'
_cell_length_a   9.99642680
_cell_length_b   7.76358856
_cell_length_c   10.21971966
_cell_angle_alpha   87.33785501
_cell_angle_beta   93.16166241
_cell_angle_gamma   84.29016740
_symmetry_Int_Tables_number   1
_chemical_formula_structural   Li3BrO10
_chemical_formula_sum   'Li12 Br4 O40'
_cell_volume   786.91982215
_cell_formula_units_Z   4
loop_
 _symmetry_equiv_pos_site_id
 _symmetry_equiv_pos_as_xyz
  1  'x, y, z'
loop_
 _atom_site_type_symbol
 _atom_site_label
 _atom_site_symmetry_multiplicity
 _atom_site_fract_x
 _atom_site_fract_y
 _atom_site_fract_z
 _atom_site_occupancy
  Li  Li0  1  0.59402118  0.78027941  0.56773293  1
  Li  Li1  1  -0.18328917  0.24217180  0.57277198  1
  Li  Li2  1  0.18583712  0.75384140  0.43094052  1
  Li  Li3  1  0.40385351  0.21626088  0.43247139  1
  Li  Li4  1  0.41867939  0.47149699  0.13002987  1
  Li  Li5  1  0.44051275  0.02046218  0.14844258  1
  Li  Li6  1  0.58058782  0.53290769  0.87272546  1
  Li  Li7  1  0.56003297  -0.01688439  0.85109360  1
  Li  Li8  1  0.04686903  -0.00876795  0.86091445  1
  Li  Li9  1  -0.07707342  0.50411234  0.85275445  1
  Li  Li10  1  -0.04387541  0.00343807  0.14023092  1
  Li  Li11  1  0.07522762  0.49362580  0.14791073  1
  Br  Br12  1  0.60405902  0.10990917  0.61645167  1
  Br  Br13  1  0.39553128  -0.11005303  0.38095877  1
  Br  Br14  1  0.81041097  0.55640345  0.61969026  1
  Br  Br15  1  0.18851042  0.44083116  0.38021664  1
  O  O16  1  0.65530147  0.85740848  0.16493248  1
  O  O17  1  0.67534319  0.69769226  0.17923242  1
  O  O18  1  0.89423584  0.39277858  0.19113758  1
  O  O19  1  0.85473034  0.24528988  0.18594066  1
  O  O20  1  0.24350076  0.65150755  0.09829418  1
  O  O21  1  0.23434841  0.81502901  0.08705445  1
  O  O22  1  0.24111791  0.15449649  0.09640686  1
  O  O23  1  0.23521587  0.31738285  0.08105159  1
  O  O24  1  0.75920399  0.84510017  0.90222037  1
  O  O25  1  0.76340117  0.68230473  0.91748634  1
  O  O26  1  0.76219048  0.18477025  0.91145339  1
  O  O27  1  0.75427699  0.34822722  0.90190113  1
  O  O28  1  0.14588514  0.74743003  0.81409476  1
  O  O29  1  0.10375359  0.60161930  0.80723457  1
  O  O30  1  0.32747300  0.30963355  0.81994646  1
  O  O31  1  0.34691699  0.14976111  0.83252571  1
  O  O32  1  0.48314002  0.33869634  -0.03448995  1
  O  O33  1  0.50765855  0.17066164  -0.01939478  1
  O  O34  1  0.60503679  0.21138244  0.25898455  1
  O  O35  1  0.47533702  0.26367218  0.25448616  1
  O  O36  1  0.08240414  -0.08356492  0.58105777  1
  O  O37  1  0.95947394  -0.09052979  0.59097989  1
  O  O38  1  0.52323230  0.73867529  0.74691671  1
  O  O39  1  0.39343837  0.79063498  0.74231320  1
  O  O40  1  0.04150028  0.08820117  0.41081549  1
  O  O41  1  0.91859929  0.08108770  0.42062016  1
  O  O42  1  0.51751154  0.66510890  0.03702876  1
  O  O43  1  0.49236915  0.83301370  0.02019264  1
  O  O44  1  0.03826166  0.16047524  0.00517191  1
  O  O45  1  0.03627276  0.32771955  -0.01286939  1
  O  O46  1  0.08321567  0.13263541  0.69916295  1
  O  O47  1  0.95338033  0.12923637  0.71026324  1
  O  O48  1  0.55148306  0.47590229  0.37160466  1
  O  O49  1  0.66258484  0.39203057  0.35788228  1
  O  O50  1  0.91918165  0.86382328  0.30269794  1
  O  O51  1  0.04899245  0.86822566  0.29249656  1
  O  O52  1  0.33689820  0.61474807  0.63735127  1
  O  O53  1  0.44868684  0.53263666  0.62223940  1
  O  O54  1  -0.03808479  0.83614620  -0.00491892  1
  O  O55  1  -0.03736429  0.66891466  0.01315837  1
