# generated using pymatgen
data_LiBrO2
_symmetry_space_group_name_H-M   'P 1'
_cell_length_a   5.56474837
_cell_length_b   5.46214389
_cell_length_c   8.68258813
_cell_angle_alpha   90.16008151
_cell_angle_beta   90.21549410
_cell_angle_gamma   90.00209863
_symmetry_Int_Tables_number   1
_chemical_formula_structural   LiBrO2
_chemical_formula_sum   'Li4 Br4 O8'
_cell_volume   263.90833105
_cell_formula_units_Z   4
loop_
 _symmetry_equiv_pos_site_id
 _symmetry_equiv_pos_as_xyz
  1  'x, y, z'
loop_
 _atom_site_type_symbol
 _atom_site_label
 _atom_site_symmetry_multiplicity
 _atom_site_fract_x
 _atom_site_fract_y
 _atom_site_fract_z
 _atom_site_occupancy
  Li  Li0  1  0.50197873  0.00047781  0.31520202  1
  Li  Li1  1  -0.00164851  0.50095536  0.68478645  1
  Li  Li2  1  0.49999617  0.50117917  0.47220117  1
  Li  Li3  1  0.00119031  0.00218150  0.52790434  1
  Br  Br4  1  0.00213816  -0.00018049  -0.08246738  1
  Br  Br5  1  0.50027719  0.00108805  0.63568564  1
  Br  Br6  1  0.00068025  0.50085584  0.36433407  1
  Br  Br7  1  0.49625625  0.49809389  0.08241979  1
  O  O8  1  0.85559300  0.78515095  0.80015341  1
  O  O9  1  0.14049514  0.21006954  0.79406623  1
  O  O10  1  0.32833190  0.16412991  0.49709980  1
  O  O11  1  0.67409082  0.83752581  0.49873081  1
  O  O12  1  0.17295137  0.66402957  0.50327513  1
  O  O13  1  0.82711963  0.33744801  0.50090671  1
  O  O14  1  0.64275822  0.28602410  0.20096811  1
  O  O15  1  0.35779138  0.71097097  0.20473370  1
