# generated using pymatgen
data_NaBrCl4
_symmetry_space_group_name_H-M   'P 1'
_cell_length_a   8.15184846
_cell_length_b   8.15225257
_cell_length_c   12.24914958
_cell_angle_alpha   90.00040382
_cell_angle_beta   90.00304572
_cell_angle_gamma   89.98834372
_symmetry_Int_Tables_number   1
_chemical_formula_structural   NaBrCl4
_chemical_formula_sum   'Na4 Br4 Cl16'
_cell_volume   814.02857957
_cell_formula_units_Z   4
loop_
 _symmetry_equiv_pos_site_id
 _symmetry_equiv_pos_as_xyz
  1  'x, y, z'
loop_
 _atom_site_type_symbol
 _atom_site_label
 _atom_site_symmetry_multiplicity
 _atom_site_fract_x
 _atom_site_fract_y
 _atom_site_fract_z
 _atom_site_occupancy
  Na  Na0  1  0.44426863  0.73750967  0.46554760  1
  Na  Na1  1  0.55572601  0.26249554  -0.03445136  1
  Na  Na2  1  0.26245510  0.44423226  0.71556270  1
  Na  Na3  1  0.73753555  0.55576184  0.21556092  1
  Br  Br4  1  0.80610516  0.99878725  0.03672634  1
  Br  Br5  1  0.19389586  0.00117743  0.53671812  1
  Br  Br6  1  0.00115041  0.80607427  0.28673523  1
  Br  Br7  1  0.99885158  0.19387894  0.78672543  1
  Cl  Cl8  1  0.74455472  0.73121550  0.00702264  1
  Cl  Cl9  1  0.66179603  0.44088571  0.45030575  1
  Cl  Cl10  1  0.87925401  0.55224621  0.51059674  1
  Cl  Cl11  1  0.68642002  0.85587318  0.32753507  1
  Cl  Cl12  1  0.25544318  0.26882036  0.50701302  1
  Cl  Cl13  1  0.33820668  0.55913456  0.95029674  1
  Cl  Cl14  1  0.12073121  0.44775503  0.01059995  1
  Cl  Cl15  1  0.31356519  0.14415248  0.82754103  1
  Cl  Cl16  1  0.26881901  0.74464125  0.25699900  1
  Cl  Cl17  1  0.55916173  0.66166994  0.70031913  1
  Cl  Cl18  1  0.44779234  0.87925549  0.76063817  1
  Cl  Cl19  1  0.14425650  0.68641244  0.57760884  1
  Cl  Cl20  1  0.73120975  0.25536834  0.75700378  1
  Cl  Cl21  1  0.44085126  0.33829224  0.20033340  1
  Cl  Cl22  1  0.55220699  0.12077401  0.26064682  1
  Cl  Cl23  1  0.85574308  0.31358608  0.07761251  1
