# generated using pymatgen
data_Li2P2S3
_symmetry_space_group_name_H-M   'P 1'
_cell_length_a   7.41624063
_cell_length_b   11.29143595
_cell_length_c   6.96260167
_cell_angle_alpha   93.40194614
_cell_angle_beta   91.54810882
_cell_angle_gamma   88.18414392
_symmetry_Int_Tables_number   1
_chemical_formula_structural   Li2P2S3
_chemical_formula_sum   'Li8 P8 S12'
_cell_volume   581.54395466
_cell_formula_units_Z   4
loop_
 _symmetry_equiv_pos_site_id
 _symmetry_equiv_pos_as_xyz
  1  'x, y, z'
loop_
 _atom_site_type_symbol
 _atom_site_label
 _atom_site_symmetry_multiplicity
 _atom_site_fract_x
 _atom_site_fract_y
 _atom_site_fract_z
 _atom_site_occupancy
  Li  Li0  1  0.90682607  0.75683678  -0.05700164  1
  Li  Li1  1  0.06124313  0.15462454  0.15737130  1
  Li  Li2  1  0.73887985  0.18690691  0.67205467  1
  Li  Li3  1  0.34066360  0.76303245  0.45069366  1
  Li  Li4  1  0.56132428  0.31000239  0.17566674  1
  Li  Li5  1  0.35820269  0.75402943  -0.00142419  1
  Li  Li6  1  0.26847100  0.22624849  0.61184838  1
  Li  Li7  1  0.85994874  0.81034464  0.49415122  1
  P  P8  1  0.20881804  0.46773539  0.17042998  1
  P  P9  1  0.80949250  0.53735763  -0.08880046  1
  P  P10  1  0.72502246  0.51802916  0.21605378  1
  P  P11  1  -0.00141877  0.56225635  0.34797955  1
  P  P12  1  0.67717389  0.00698969  0.89355921  1
  P  P13  1  0.23370178  0.95728035  0.16282546  1
  P  P14  1  0.69378921  0.01237976  0.22014046  1
  P  P15  1  0.32250188  0.00373945  0.47256634  1
  S  S16  1  0.60699205  0.47240979  0.72684003  1
  S  S17  1  0.05506180  0.41931524  0.87097004  1
  S  S18  1  0.02381561  0.23984223  0.84108602  1
  S  S19  1  0.06369041  0.72550824  0.23765884  1
  S  S20  1  0.51247839  0.31451801  0.82541794  1
  S  S21  1  0.60288025  0.68595403  0.25871432  1
  S  S22  1  0.11523247  -0.04594573  0.64584470  1
  S  S23  1  0.43129563  0.07065066  0.06929474  1
  S  S24  1  0.14171173  0.76792850  0.71824991  1
  S  S25  1  0.78704146  0.17655396  0.32156009  1
  S  S26  1  0.25635582  0.30917986  0.29299239  1
  S  S27  1  0.63880404  0.83629179  0.79325653  1
