# generated using pymatgen
data_LiSO4
_symmetry_space_group_name_H-M   'P 1'
_cell_length_a   4.89146320
_cell_length_b   4.75800894
_cell_length_c   11.26405293
_cell_angle_alpha   93.86723391
_cell_angle_beta   88.74532070
_cell_angle_gamma   121.78766946
_symmetry_Int_Tables_number   1
_chemical_formula_structural   LiSO4
_chemical_formula_sum   'Li3 S3 O12'
_cell_volume   222.29753053
_cell_formula_units_Z   3
loop_
 _symmetry_equiv_pos_site_id
 _symmetry_equiv_pos_as_xyz
  1  'x, y, z'
loop_
 _atom_site_type_symbol
 _atom_site_label
 _atom_site_symmetry_multiplicity
 _atom_site_fract_x
 _atom_site_fract_y
 _atom_site_fract_z
 _atom_site_occupancy
  Li  Li0  1  0.01584113  -0.14361465  0.67146438  1
  Li  Li1  1  0.69028736  0.19921641  0.00043013  1
  Li  Li2  1  0.35848807  0.53312764  0.33477920  1
  S  S3  1  0.38574235  0.61750822  0.78560851  1
  S  S4  1  0.05897708  -0.04016684  0.11748327  1
  S  S5  1  0.72692735  0.29348155  0.45130009  1
  O  O6  1  0.58863208  0.79325786  0.89342271  1
  O  O7  1  0.57956075  -0.18576817  0.68431581  1
  O  O8  1  0.07716214  0.60330402  0.79759043  1
  O  O9  1  0.32583426  0.28000518  0.76386056  1
  O  O10  1  0.25877203  0.13375606  0.22595325  1
  O  O11  1  0.25445835  0.15574014  0.01640127  1
  O  O12  1  0.75078891  -0.05276597  0.12829741  1
  O  O13  1  -0.00299776  0.62141400  0.09615132  1
  O  O14  1  -0.07713164  0.46353062  0.56084644  1
  O  O15  1  0.92504070  0.49173332  0.35112747  1
  O  O16  1  0.41868677  0.28099399  0.46138699  1
  O  O17  1  0.66493006  -0.04475338  0.42900242  1
