# generated using pymatgen
data_Na3Br4O
_symmetry_space_group_name_H-M   'P 1'
_cell_length_a   5.57815024
_cell_length_b   5.57815042
_cell_length_c   12.98506877
_cell_angle_alpha   89.99964623
_cell_angle_beta   89.99980127
_cell_angle_gamma   89.99999658
_symmetry_Int_Tables_number   1
_chemical_formula_structural   Na3Br4O
_chemical_formula_sum   'Na6 Br8 O2'
_cell_volume   404.04029787
_cell_formula_units_Z   2
loop_
 _symmetry_equiv_pos_site_id
 _symmetry_equiv_pos_as_xyz
  1  'x, y, z'
loop_
 _atom_site_type_symbol
 _atom_site_label
 _atom_site_symmetry_multiplicity
 _atom_site_fract_x
 _atom_site_fract_y
 _atom_site_fract_z
 _atom_site_occupancy
  Na  Na0  1  0.27801368  0.27801365  0.74999999  1
  Na  Na1  1  0.72198636  0.72198638  0.75000341  1
  Na  Na2  1  -0.00000025  0.00000004  0.00000001  1
  Na  Na3  1  0.72198633  0.27801364  0.24999840  1
  Na  Na4  1  0.27801372  0.72198632  0.24999820  1
  Na  Na5  1  0.00000029  -0.00000003  0.49999999  1
  Br  Br6  1  0.50000001  -0.00000033  -0.00000000  1
  Br  Br7  1  0.77393703  0.22606302  0.74999683  1
  Br  Br8  1  0.22606300  0.77393700  0.74999729  1
  Br  Br9  1  -0.00000252  0.49999992  0.00000000  1
  Br  Br10  1  0.22606298  0.22606297  0.25000283  1
  Br  Br11  1  0.77393706  0.77393699  0.25000306  1
  Br  Br12  1  0.50000002  0.00000030  0.50000000  1
  Br  Br13  1  0.00000265  0.50000008  0.50000000  1
  O  O14  1  0.50000142  0.50000088  0.00000001  1
  O  O15  1  0.49999822  0.49999915  0.50000000  1
