# generated using pymatgen
data_Li2SiI
_symmetry_space_group_name_H-M   'P 1'
_cell_length_a   6.87517613
_cell_length_b   6.87541089
_cell_length_c   7.17203557
_cell_angle_alpha   89.99999210
_cell_angle_beta   89.99998953
_cell_angle_gamma   89.99997502
_symmetry_Int_Tables_number   1
_chemical_formula_structural   Li2SiI
_chemical_formula_sum   'Li8 Si4 I4'
_cell_volume   339.01968923
_cell_formula_units_Z   4
loop_
 _symmetry_equiv_pos_site_id
 _symmetry_equiv_pos_as_xyz
  1  'x, y, z'
loop_
 _atom_site_type_symbol
 _atom_site_label
 _atom_site_symmetry_multiplicity
 _atom_site_fract_x
 _atom_site_fract_y
 _atom_site_fract_z
 _atom_site_occupancy
  Li  Li0  1  0.24897750  0.25102231  0.15252225  1
  Li  Li1  1  0.75102241  0.74897781  0.15252225  1
  Li  Li2  1  0.25102133  0.75102150  0.15252249  1
  Li  Li3  1  0.74897692  0.24897678  0.15252180  1
  Li  Li4  1  0.25102269  0.24897758  0.65252257  1
  Li  Li5  1  0.74897757  0.75102232  0.65252213  1
  Li  Li6  1  0.75102290  0.25102306  0.65252378  1
  Li  Li7  1  0.24897850  0.74897835  0.65252002  1
  Si  Si8  1  0.00000080  -0.00000071  0.40298965  1
  Si  Si9  1  0.49999924  0.50000078  0.40298881  1
  Si  Si10  1  -0.00000075  0.00000084  -0.09701519  1
  Si  Si11  1  0.50000078  0.49999923  -0.09701435  1
  I  I12  1  0.50000270  0.00000278  0.40284213  1
  I  I13  1  -0.00000268  0.49999727  0.40284218  1
  I  I14  1  0.00000275  0.50000295  0.90284176  1
  I  I15  1  0.49999734  -0.00000285  0.90284182  1
