# generated using pymatgen
data_Li3BrO2
_symmetry_space_group_name_H-M   'P 1'
_cell_length_a   5.47891501
_cell_length_b   5.47891504
_cell_length_c   5.02487457
_cell_angle_alpha   90.00001238
_cell_angle_beta   90.00000987
_cell_angle_gamma   120.00401640
_symmetry_Int_Tables_number   1
_chemical_formula_structural   Li3BrO2
_chemical_formula_sum   'Li6 Br2 O4'
_cell_volume   130.62533243
_cell_formula_units_Z   2
loop_
 _symmetry_equiv_pos_site_id
 _symmetry_equiv_pos_as_xyz
  1  'x, y, z'
loop_
 _atom_site_type_symbol
 _atom_site_label
 _atom_site_symmetry_multiplicity
 _atom_site_fract_x
 _atom_site_fract_y
 _atom_site_fract_z
 _atom_site_occupancy
  Li  Li0  1  0.49984034  0.49983899  0.57309315  1
  Li  Li1  1  -0.00001024  0.50008935  0.57308271  1
  Li  Li2  1  0.50009038  -0.00000794  0.57308270  1
  Li  Li3  1  0.00000963  0.49991176  0.07304964  1
  Li  Li4  1  0.49991139  0.00000901  0.07304964  1
  Li  Li5  1  0.50015921  0.50015953  0.07305992  1
  Br  Br6  1  -0.00001435  -0.00001418  0.57417413  1
  Br  Br7  1  0.00001361  0.00001358  0.07418302  1
  O  O8  1  0.33333428  0.66665983  0.82365164  1
  O  O9  1  0.66665988  0.33333423  0.82364642  1
  O  O10  1  0.33334018  0.66666567  0.32364563  1
  O  O11  1  0.66666571  0.33334017  0.32363731  1
