# generated using pymatgen
data_Li3I2N3
_symmetry_space_group_name_H-M   'P 1'
_cell_length_a   5.84673325
_cell_length_b   6.45064916
_cell_length_c   8.30690400
_cell_angle_alpha   94.28984454
_cell_angle_beta   93.28489690
_cell_angle_gamma   88.72579726
_symmetry_Int_Tables_number   1
_chemical_formula_structural   Li3I2N3
_chemical_formula_sum   'Li6 I4 N6'
_cell_volume   311.85499739
_cell_formula_units_Z   2
loop_
 _symmetry_equiv_pos_site_id
 _symmetry_equiv_pos_as_xyz
  1  'x, y, z'
loop_
 _atom_site_type_symbol
 _atom_site_label
 _atom_site_symmetry_multiplicity
 _atom_site_fract_x
 _atom_site_fract_y
 _atom_site_fract_z
 _atom_site_occupancy
  Li  Li0  1  0.51341861  0.83586438  0.81207473  1
  Li  Li1  1  0.20049009  0.72014960  0.08792158  1
  Li  Li2  1  0.72666072  0.55359858  -0.04367226  1
  Li  Li3  1  0.06688110  0.31083257  0.27845216  1
  Li  Li4  1  0.29806919  0.43675057  0.64806674  1
  Li  Li5  1  0.76831750  0.25215388  0.63267154  1
  I  I6  1  0.20177704  0.98475020  0.52489523  1
  I  I7  1  0.68273971  0.69325350  0.52037408  1
  I  I8  1  0.06644573  0.20029022  -0.05698782  1
  I  I9  1  0.67539445  -0.01751884  0.18091590  1
  N  N10  1  0.60633795  0.53201935  0.70295201  1
  N  N11  1  0.01633852  0.46382864  0.07052966  1
  N  N12  1  0.56646385  -0.01678541  0.60410159  1
  N  N13  1  0.51821782  -0.21845567  0.03335060  1
  N  N14  1  0.01577854  -0.00094467  0.12661609  1
  N  N15  1  0.07666916  0.27021311  0.51906651  1
