# generated using pymatgen
data_Na4PI4
_symmetry_space_group_name_H-M   'P 1'
_cell_length_a   7.33590265
_cell_length_b   7.33589909
_cell_length_c   8.68378497
_cell_angle_alpha   89.99999640
_cell_angle_beta   89.99999686
_cell_angle_gamma   120.05710196
_symmetry_Int_Tables_number   1
_chemical_formula_structural   Na4PI4
_chemical_formula_sum   'Na4 P1 I4'
_cell_volume   404.47941195
_cell_formula_units_Z   1
loop_
 _symmetry_equiv_pos_site_id
 _symmetry_equiv_pos_as_xyz
  1  'x, y, z'
loop_
 _atom_site_type_symbol
 _atom_site_label
 _atom_site_symmetry_multiplicity
 _atom_site_fract_x
 _atom_site_fract_y
 _atom_site_fract_z
 _atom_site_occupancy
  Na  Na0  1  0.00000001  -0.00000000  0.00000001  1
  Na  Na1  1  -0.00000000  0.50000000  0.50000000  1
  Na  Na2  1  0.50000000  0.50000000  0.49999999  1
  Na  Na3  1  0.50000000  0.00000000  0.50000000  1
  P  P4  1  -0.00000000  0.00000000  0.50000000  1
  I  I5  1  0.66661354  0.33338636  0.75571199  1
  I  I6  1  0.33338625  0.66661344  0.75571200  1
  I  I7  1  0.66661375  0.33338656  0.24428800  1
  I  I8  1  0.33338645  0.66661364  0.24428800  1
