# generated using pymatgen
data_Li3S2I3
_symmetry_space_group_name_H-M   'P 1'
_cell_length_a   9.22988992
_cell_length_b   10.81798152
_cell_length_c   6.24180366
_cell_angle_alpha   95.40201244
_cell_angle_beta   90.94380023
_cell_angle_gamma   87.76704815
_symmetry_Int_Tables_number   1
_chemical_formula_structural   Li3S2I3
_chemical_formula_sum   'Li6 S4 I6'
_cell_volume   619.94597405
_cell_formula_units_Z   2
loop_
 _symmetry_equiv_pos_site_id
 _symmetry_equiv_pos_as_xyz
  1  'x, y, z'
loop_
 _atom_site_type_symbol
 _atom_site_label
 _atom_site_symmetry_multiplicity
 _atom_site_fract_x
 _atom_site_fract_y
 _atom_site_fract_z
 _atom_site_occupancy
  Li  Li0  1  0.05815520  0.04057181  0.11117567  1
  Li  Li1  1  0.04031485  0.34874281  0.64389561  1
  Li  Li2  1  0.92956691  0.76527803  0.21565297  1
  Li  Li3  1  0.06535547  0.04207951  0.61223431  1
  Li  Li4  1  0.97715294  0.32424693  0.09714202  1
  Li  Li5  1  0.22013454  0.75435533  0.71124199  1
  S  S6  1  -0.12083616  0.47860210  0.88635105  1
  S  S7  1  0.02491452  0.54578992  0.10558024  1
  S  S8  1  0.23351782  0.56464052  -0.07632355  1
  S  S9  1  0.17815509  0.53218270  0.61490542  1
  I  I10  1  0.61467190  -0.26648418  0.25912840  1
  I  I11  1  0.55075171  -0.26358745  -0.24455178  1
  I  I12  1  0.93484876  0.87075996  0.82412801  1
  I  I13  1  0.21129683  0.19928121  0.89744042  1
  I  I14  1  0.21094669  0.87734266  0.33472991  1
  I  I15  1  0.87105291  0.18619814  0.38882550  1
