# generated using pymatgen
data_Li3BrO
_symmetry_space_group_name_H-M   'P 1'
_cell_length_a   3.98906856
_cell_length_b   3.99285321
_cell_length_c   7.91377394
_cell_angle_alpha   90.02919440
_cell_angle_beta   89.99994136
_cell_angle_gamma   90.00000661
_symmetry_Int_Tables_number   1
_chemical_formula_structural   Li3BrO
_chemical_formula_sum   'Li6 Br2 O2'
_cell_volume   126.04871699
_cell_formula_units_Z   2
loop_
 _symmetry_equiv_pos_site_id
 _symmetry_equiv_pos_as_xyz
  1  'x, y, z'
loop_
 _atom_site_type_symbol
 _atom_site_label
 _atom_site_symmetry_multiplicity
 _atom_site_fract_x
 _atom_site_fract_y
 _atom_site_fract_z
 _atom_site_occupancy
  Li  Li0  1  0.50002743  0.10011335  0.54245020  1
  Li  Li1  1  0.50173015  0.59991359  0.29271212  1
  Li  Li2  1  0.00107443  0.10042143  0.29270573  1
  Li  Li3  1  0.49997397  0.10011109  0.04245045  1
  Li  Li4  1  0.49827089  0.59991515  0.79273127  1
  Li  Li5  1  0.99892415  0.10042173  0.79272557  1
  Br  Br6  1  0.00000662  -0.40036270  0.54283352  1
  Br  Br7  1  -0.00000793  -0.40036463  0.04283358  1
  O  O8  1  0.49929840  0.09991548  0.79260080  1
  O  O9  1  0.50070188  0.09991551  0.29265542  1
