# generated using pymatgen
data_Na5SBr9
_symmetry_space_group_name_H-M   'P 1'
_cell_length_a   7.45435225
_cell_length_b   7.45434743
_cell_length_c   7.61551453
_cell_angle_alpha   90.00022356
_cell_angle_beta   90.00011581
_cell_angle_gamma   90.00027901
_symmetry_Int_Tables_number   1
_chemical_formula_structural   Na5SBr9
_chemical_formula_sum   'Na5 S1 Br9'
_cell_volume   423.17382026
_cell_formula_units_Z   1
loop_
 _symmetry_equiv_pos_site_id
 _symmetry_equiv_pos_as_xyz
  1  'x, y, z'
loop_
 _atom_site_type_symbol
 _atom_site_label
 _atom_site_symmetry_multiplicity
 _atom_site_fract_x
 _atom_site_fract_y
 _atom_site_fract_z
 _atom_site_occupancy
  Na  Na0  1  0.00000002  0.50000016  0.00000027  1
  Na  Na1  1  0.49999972  0.00000004  -0.00000004  1
  Na  Na2  1  0.49999999  0.49999999  0.49999964  1
  Na  Na3  1  0.50000039  -0.00000003  0.50000037  1
  Na  Na4  1  -0.00000007  0.49999979  0.49999989  1
  S  S5  1  0.00000018  -0.00000017  0.49999898  1
  Br  Br6  1  0.78409018  0.28726113  0.73292796  1
  Br  Br7  1  0.21590880  0.28726038  0.26707191  1
  Br  Br8  1  0.21590981  0.71273877  0.73292842  1
  Br  Br9  1  0.78409120  0.71273984  0.26707344  1
  Br  Br10  1  -0.00000008  0.00000010  -0.00000101  1
  Br  Br11  1  0.71273811  0.21591094  0.26707252  1
  Br  Br12  1  0.71273826  0.78408966  0.73292819  1
  Br  Br13  1  0.28726187  0.78408908  0.26707268  1
  Br  Br14  1  0.28726162  0.21591033  0.73292678  1
