# generated using pymatgen
data_KP2Br3
_symmetry_space_group_name_H-M   'P 1'
_cell_length_a   8.69594569
_cell_length_b   8.50926198
_cell_length_c   9.50165192
_cell_angle_alpha   86.22250837
_cell_angle_beta   92.03183049
_cell_angle_gamma   134.47836090
_symmetry_Int_Tables_number   1
_chemical_formula_structural   KP2Br3
_chemical_formula_sum   'K2 P4 Br6'
_cell_volume   500.51528853
_cell_formula_units_Z   2
loop_
 _symmetry_equiv_pos_site_id
 _symmetry_equiv_pos_as_xyz
  1  'x, y, z'
loop_
 _atom_site_type_symbol
 _atom_site_label
 _atom_site_symmetry_multiplicity
 _atom_site_fract_x
 _atom_site_fract_y
 _atom_site_fract_z
 _atom_site_occupancy
  K  K0  1  -0.20283601  0.11155099  0.31898969  1
  K  K1  1  -0.10434229  -0.08191780  -0.10356589  1
  P  P2  1  0.59666703  0.26139687  0.71982718  1
  P  P3  1  0.31299476  0.59525242  0.37866652  1
  P  P4  1  0.70101727  0.35809978  -0.05312449  1
  P  P5  1  0.41957570  0.48076073  0.30207103  1
  Br  Br6  1  -0.10355329  0.60818269  0.63705511  1
  Br  Br7  1  0.70231692  0.07368622  0.66867081  1
  Br  Br8  1  0.41866413  0.39594956  0.83047930  1
  Br  Br9  1  0.42371722  0.02086968  0.05278566  1
  Br  Br10  1  -0.02299102  0.36971422  -0.01520051  1
  Br  Br11  1  0.85876958  0.80645464  0.22929557  1
