# generated using pymatgen
data_KI2Br3
_symmetry_space_group_name_H-M   'P 1'
_cell_length_a   7.13036962
_cell_length_b   7.13035914
_cell_length_c   4.81715094
_cell_angle_alpha   90.00284410
_cell_angle_beta   90.00680933
_cell_angle_gamma   119.99884432
_symmetry_Int_Tables_number   1
_chemical_formula_structural   KI2Br3
_chemical_formula_sum   'K1 I2 Br3'
_cell_volume   212.10425698
_cell_formula_units_Z   1
loop_
 _symmetry_equiv_pos_site_id
 _symmetry_equiv_pos_as_xyz
  1  'x, y, z'
loop_
 _atom_site_type_symbol
 _atom_site_label
 _atom_site_symmetry_multiplicity
 _atom_site_fract_x
 _atom_site_fract_y
 _atom_site_fract_z
 _atom_site_occupancy
  K  K0  1  0.00000109  0.00000070  0.49999994  1
  I  I1  1  0.66670071  0.33334484  0.50000008  1
  I  I2  1  0.33334349  0.66669927  0.50000003  1
  Br  Br3  1  0.37676563  0.37677015  0.00000142  1
  Br  Br4  1  -0.00000260  0.62320127  -0.00000030  1
  Br  Br5  1  0.62319168  -0.00001623  -0.00000117  1
