# generated using pymatgen
data_NaClO4
_symmetry_space_group_name_H-M   'P 1'
_cell_length_a   6.05389816
_cell_length_b   6.05350492
_cell_length_c   5.07409397
_cell_angle_alpha   90.00674323
_cell_angle_beta   89.99590823
_cell_angle_gamma   90.00527941
_symmetry_Int_Tables_number   1
_chemical_formula_structural   NaClO4
_chemical_formula_sum   'Na2 Cl2 O8'
_cell_volume   185.95185301
_cell_formula_units_Z   2
loop_
 _symmetry_equiv_pos_site_id
 _symmetry_equiv_pos_as_xyz
  1  'x, y, z'
loop_
 _atom_site_type_symbol
 _atom_site_label
 _atom_site_symmetry_multiplicity
 _atom_site_fract_x
 _atom_site_fract_y
 _atom_site_fract_z
 _atom_site_occupancy
  Na  Na0  1  -0.00013199  0.00002882  0.00001754  1
  Na  Na1  1  0.50015282  0.50008850  0.49996294  1
  Cl  Cl2  1  0.50011689  0.00001433  0.75003169  1
  Cl  Cl3  1  -0.00009765  0.49991135  0.25007222  1
  O  O4  1  0.61746555  0.37194689  -0.03961582  1
  O  O5  1  0.38243198  0.62786991  -0.03952153  1
  O  O6  1  0.62789926  0.61756276  0.03958519  1
  O  O7  1  0.37201368  0.38240301  0.03942621  1
  O  O8  1  0.11757781  0.87206263  0.46041220  1
  O  O9  1  0.88250526  0.12808369  0.46051333  1
  O  O10  1  0.12795490  0.11761040  0.53942150  1
  O  O11  1  0.87211150  0.88241769  0.53969453  1
