# generated using pymatgen
data_Na3Br2O
_symmetry_space_group_name_H-M   'P 1'
_cell_length_a   7.07982995
_cell_length_b   7.44757201
_cell_length_c   11.42378546
_cell_angle_alpha   90.00000318
_cell_angle_beta   89.99987477
_cell_angle_gamma   90.00000035
_symmetry_Int_Tables_number   1
_chemical_formula_structural   Na3Br2O
_chemical_formula_sum   'Na12 Br8 O4'
_cell_volume   602.34814304
_cell_formula_units_Z   4
loop_
 _symmetry_equiv_pos_site_id
 _symmetry_equiv_pos_as_xyz
  1  'x, y, z'
loop_
 _atom_site_type_symbol
 _atom_site_label
 _atom_site_symmetry_multiplicity
 _atom_site_fract_x
 _atom_site_fract_y
 _atom_site_fract_z
 _atom_site_occupancy
  Na  Na0  1  -0.01539875  0.34856754  0.80235048  1
  Na  Na1  1  0.36776552  0.56342236  0.94879562  1
  Na  Na2  1  0.01539865  0.84856760  0.69764944  1
  Na  Na3  1  0.63223439  0.06342254  0.55120411  1
  Na  Na4  1  0.04893489  0.35255188  0.16746843  1
  Na  Na5  1  -0.04893481  0.85255184  0.33253192  1
  Na  Na6  1  0.51539894  0.65143176  0.30235128  1
  Na  Na7  1  0.13223538  0.43657796  0.44879161  1
  Na  Na8  1  0.48460096  0.15143182  0.19764880  1
  Na  Na9  1  0.86776455  0.93657813  0.05120867  1
  Na  Na10  1  0.54893407  0.14744832  0.83252764  1
  Na  Na11  1  0.45106601  0.64744836  0.66747202  1
  Br  Br12  1  0.71194390  0.35359720  0.01794252  1
  Br  Br13  1  0.68121876  0.79165129  0.85217905  1
  Br  Br14  1  0.28805620  0.85359732  0.48205737  1
  Br  Br15  1  0.31878128  0.29165123  0.64782102  1
  Br  Br16  1  0.78805579  0.64640027  0.51794423  1
  Br  Br17  1  0.81878264  0.20835054  0.35217632  1
  Br  Br18  1  0.21194431  0.14640040  -0.01794413  1
  Br  Br19  1  0.18121741  0.70835048  0.14782362  1
  O  O20  1  0.18535979  0.60256445  0.78426088  1
  O  O21  1  0.81464017  0.10256446  0.71573886  1
  O  O22  1  0.31464048  0.39743612  0.28425873  1
  O  O23  1  0.68535949  0.89743613  0.21574153  1
