# generated using pymatgen
data_KBrO2
_symmetry_space_group_name_H-M   'P 1'
_cell_length_a   4.73144663
_cell_length_b   4.73151766
_cell_length_c   7.07252910
_cell_angle_alpha   90.00000587
_cell_angle_beta   89.99998829
_cell_angle_gamma   90.00002606
_symmetry_Int_Tables_number   1
_chemical_formula_structural   KBrO2
_chemical_formula_sum   'K2 Br2 O4'
_cell_volume   158.33216651
_cell_formula_units_Z   2
loop_
 _symmetry_equiv_pos_site_id
 _symmetry_equiv_pos_as_xyz
  1  'x, y, z'
loop_
 _atom_site_type_symbol
 _atom_site_label
 _atom_site_symmetry_multiplicity
 _atom_site_fract_x
 _atom_site_fract_y
 _atom_site_fract_z
 _atom_site_occupancy
  K  K0  1  -0.00000004  -0.00000007  0.25003326  1
  K  K1  1  -0.00000000  0.00000007  0.74996675  1
  Br  Br2  1  0.49999999  0.49999997  0.75003196  1
  Br  Br3  1  0.50000000  0.50000004  0.24996804  1
  O  O4  1  0.00000001  0.50000000  -0.00000000  1
  O  O5  1  0.50000001  0.00000001  -0.00000000  1
  O  O6  1  0.49999998  -0.00000000  0.50000000  1
  O  O7  1  0.00000005  0.49999999  0.50000000  1
