# generated using pymatgen
data_Na2LiI
_symmetry_space_group_name_H-M   'P 1'
_cell_length_a   4.63228099
_cell_length_b   4.09873617
_cell_length_c   13.07609030
_cell_angle_alpha   90.00000027
_cell_angle_beta   89.99999738
_cell_angle_gamma   90.00000037
_symmetry_Int_Tables_number   1
_chemical_formula_structural   Na2LiI
_chemical_formula_sum   'Na4 Li2 I2'
_cell_volume   248.26915761
_cell_formula_units_Z   2
loop_
 _symmetry_equiv_pos_site_id
 _symmetry_equiv_pos_as_xyz
  1  'x, y, z'
loop_
 _atom_site_type_symbol
 _atom_site_label
 _atom_site_symmetry_multiplicity
 _atom_site_fract_x
 _atom_site_fract_y
 _atom_site_fract_z
 _atom_site_occupancy
  Na  Na0  1  0.00000002  -0.00000006  0.29621128  1
  Na  Na1  1  0.50000000  0.49999993  0.20378874  1
  Na  Na2  1  -0.00000002  -0.00000008  0.70378875  1
  Na  Na3  1  0.50000000  0.49999993  0.79621124  1
  Li  Li4  1  -0.00000001  0.50000008  0.00000001  1
  Li  Li5  1  0.49999998  0.00000010  0.49999998  1
  I  I6  1  0.00000001  0.50000004  0.50000001  1
  I  I7  1  0.50000001  0.00000005  -0.00000001  1
