# generated using pymatgen
data_LiBrN
_symmetry_space_group_name_H-M   'P 1'
_cell_length_a   5.59888699
_cell_length_b   8.04992564
_cell_length_c   6.20593575
_cell_angle_alpha   90.00000819
_cell_angle_beta   90.00000119
_cell_angle_gamma   90.00000480
_symmetry_Int_Tables_number   1
_chemical_formula_structural   LiBrN
_chemical_formula_sum   'Li4 Br4 N4'
_cell_volume   279.70539632
_cell_formula_units_Z   4
loop_
 _symmetry_equiv_pos_site_id
 _symmetry_equiv_pos_as_xyz
  1  'x, y, z'
loop_
 _atom_site_type_symbol
 _atom_site_label
 _atom_site_symmetry_multiplicity
 _atom_site_fract_x
 _atom_site_fract_y
 _atom_site_fract_z
 _atom_site_occupancy
  Li  Li0  1  -0.00000001  0.00000000  0.50000000  1
  Li  Li1  1  0.50000000  0.50000001  0.50000000  1
  Li  Li2  1  0.50000000  0.50000000  0.00000000  1
  Li  Li3  1  0.00000000  -0.00000001  0.00000000  1
  Br  Br4  1  0.50000000  0.27286447  0.74999995  1
  Br  Br5  1  0.50000000  0.72713554  0.25000004  1
  Br  Br6  1  -0.00000001  0.77286446  0.74999994  1
  Br  Br7  1  0.00000001  0.22713554  0.25000005  1
  N  N8  1  0.00000001  0.40178585  0.75000004  1
  N  N9  1  -0.00000001  0.59821414  0.24999996  1
  N  N10  1  0.50000000  0.90178587  0.75000003  1
  N  N11  1  0.49999999  0.09821413  0.24999996  1
