# generated using pymatgen
data_Li3SiI2
_symmetry_space_group_name_H-M   'P 1'
_cell_length_a   7.02273583
_cell_length_b   8.30328478
_cell_length_c   5.34737130
_cell_angle_alpha   89.93171679
_cell_angle_beta   81.03150714
_cell_angle_gamma   90.15290259
_symmetry_Int_Tables_number   1
_chemical_formula_structural   Li3SiI2
_chemical_formula_sum   'Li6 Si2 I4'
_cell_volume   308.00103045
_cell_formula_units_Z   2
loop_
 _symmetry_equiv_pos_site_id
 _symmetry_equiv_pos_as_xyz
  1  'x, y, z'
loop_
 _atom_site_type_symbol
 _atom_site_label
 _atom_site_symmetry_multiplicity
 _atom_site_fract_x
 _atom_site_fract_y
 _atom_site_fract_z
 _atom_site_occupancy
  Li  Li0  1  0.50000079  -0.00000014  -0.00000124  1
  Li  Li1  1  0.72281096  0.29070060  0.23335427  1
  Li  Li2  1  0.27718914  0.70929928  -0.23335531  1
  Li  Li3  1  -0.00000058  0.49999993  0.50000142  1
  Li  Li4  1  0.22389175  0.20865660  0.73183488  1
  Li  Li5  1  0.77610802  0.79134377  0.26816614  1
  Si  Si6  1  0.00000044  0.50000022  0.00000008  1
  Si  Si7  1  0.49999951  0.00000021  0.49999932  1
  I  I8  1  0.18369828  0.80572322  0.28021924  1
  I  I9  1  0.81630190  0.19427661  0.71978039  1
  I  I10  1  0.68440154  0.69421259  -0.21857678  1
  I  I11  1  0.31559824  0.30578710  0.21857758  1
