# generated using pymatgen
data_Li15(BrCl)2
_symmetry_space_group_name_H-M   'P 1'
_cell_length_a   10.75114759
_cell_length_b   10.75114316
_cell_length_c   10.75113264
_cell_angle_alpha   89.99986431
_cell_angle_beta   89.99958436
_cell_angle_gamma   89.99999481
_symmetry_Int_Tables_number   1
_chemical_formula_structural   Li15(BrCl)2
_chemical_formula_sum   'Li60 Br8 Cl8'
_cell_volume   1242.69253336
_cell_formula_units_Z   4
loop_
 _symmetry_equiv_pos_site_id
 _symmetry_equiv_pos_as_xyz
  1  'x, y, z'
loop_
 _atom_site_type_symbol
 _atom_site_label
 _atom_site_symmetry_multiplicity
 _atom_site_fract_x
 _atom_site_fract_y
 _atom_site_fract_z
 _atom_site_occupancy
  Li  Li0  1  0.53814377  0.12789222  0.83963310  1
  Li  Li1  1  0.63235179  0.07249965  0.06733395  1
  Li  Li2  1  0.83963091  0.53814281  0.12788804  1
  Li  Li3  1  0.06733359  0.63235209  0.07249988  1
  Li  Li4  1  0.12788967  0.83962977  0.53814281  1
  Li  Li5  1  0.07249615  0.06733445  0.63234380  1
  Li  Li6  1  0.03814160  0.62788929  0.33963045  1
  Li  Li7  1  0.13234843  0.57249575  0.56732775  1
  Li  Li8  1  0.62788779  0.33963259  0.03814438  1
  Li  Li9  1  0.57249934  0.56733789  0.13235130  1
  Li  Li10  1  0.33963118  0.03814323  0.62789294  1
  Li  Li11  1  0.56733533  0.13234822  0.57249953  1
  Li  Li12  1  0.66037239  0.53814416  0.87211173  1
  Li  Li13  1  0.43267049  0.63234694  0.92750388  1
  Li  Li14  1  0.53814135  0.87210955  0.66037112  1
  Li  Li15  1  0.63234876  0.92750134  0.43266993  1
  Li  Li16  1  0.87210637  0.66037014  0.53814001  1
  Li  Li17  1  0.92750636  0.43267001  0.63234149  1
  Li  Li18  1  0.03813932  0.37211187  0.16037080  1
  Li  Li19  1  0.13234576  0.42750405  -0.06732616  1
  Li  Li20  1  0.16036832  0.03814400  0.37210677  1
  Li  Li21  1  -0.06733713  0.13234462  0.42750199  1
  Li  Li22  1  0.37210885  0.16037035  0.03814369  1
  Li  Li23  1  0.42750371  -0.06732879  0.13234768  1
  Li  Li24  1  0.66037078  0.46185675  0.62789213  1
  Li  Li25  1  0.43266385  0.36765461  0.57249876  1
  Li  Li26  1  0.62788900  0.66036827  0.46185742  1
  Li  Li27  1  0.57249633  0.43266410  0.36765425  1
  Li  Li28  1  0.46185508  0.62789101  0.66036986  1
  Li  Li29  1  0.36765391  0.57249623  0.43266426  1
  Li  Li30  1  0.96185435  0.12789311  0.16036714  1
  Li  Li31  1  0.86765719  0.07249576  -0.06734103  1
  Li  Li32  1  0.12788978  0.16036479  0.96185378  1
  Li  Li33  1  0.07250274  -0.06734219  0.86764309  1
  Li  Li34  1  0.16037198  0.96185906  0.12788968  1
  Li  Li35  1  -0.06732756  0.86766056  0.07249193  1
  Li  Li36  1  0.96185521  0.87210714  0.33962992  1
  Li  Li37  1  0.86765386  0.92750206  0.56733604  1
  Li  Li38  1  0.46185643  0.37211202  0.83962959  1
  Li  Li39  1  0.36765638  0.42750515  0.06733304  1
  Li  Li40  1  0.83963328  0.46185428  0.37210745  1
  Li  Li41  1  0.06733867  0.36764687  0.42749976  1
  Li  Li42  1  0.37210680  0.83962797  0.46185925  1
  Li  Li43  1  0.42750544  0.06732827  0.36765952  1
  Li  Li44  1  0.33963312  0.96185900  0.87210966  1
  Li  Li45  1  0.56733298  0.86765502  0.92750604  1
  Li  Li46  1  0.49999626  0.75000369  0.27622696  1
  Li  Li47  1  0.22377497  0.50000057  0.24999621  1
  Li  Li48  1  0.77622469  -0.00000530  0.24999956  1
  Li  Li49  1  0.75000425  0.72377964  0.00000331  1
  Li  Li50  1  0.27621981  0.50000351  0.75000469  1
  Li  Li51  1  0.25000427  0.22377095  0.50000191  1
  Li  Li52  1  0.25000542  0.77622577  -0.00000045  1
  Li  Li53  1  -0.00000515  0.74998923  0.72377132  1
  Li  Li54  1  0.75000088  0.27622431  0.50000064  1
  Li  Li55  1  0.49999494  0.24999713  0.22377913  1
  Li  Li56  1  0.00000331  0.25000542  0.77622093  1
  Li  Li57  1  0.72377340  -0.00000318  0.75000142  1
  Li  Li58  1  0.87210779  0.33962676  0.96185587  1
  Li  Li59  1  0.92750332  0.56732896  0.86765613  1
  Br  Br60  1  0.18501292  0.81498426  0.31498332  1
  Br  Br61  1  0.31498254  0.81498578  0.68501848  1
  Br  Br62  1  0.81498127  0.68501140  0.31498210  1
  Br  Br63  1  0.81498041  0.31498550  0.18501381  1
  Br  Br64  1  0.68501356  0.31498481  0.81498569  1
  Br  Br65  1  0.31498466  0.18501751  0.81498608  1
  Br  Br66  1  0.18501266  0.18501947  0.18501171  1
  Br  Br67  1  0.68501400  0.68501553  0.68501581  1
  Cl  Cl68  1  0.36010080  0.36010707  0.36010900  1
  Cl  Cl69  1  0.86010947  0.86010421  0.86010281  1
  Cl  Cl70  1  0.63988969  0.86010600  0.13989636  1
  Cl  Cl71  1  0.63989633  0.13989164  0.36010609  1
  Cl  Cl72  1  0.13989007  0.63989872  0.86010968  1
  Cl  Cl73  1  0.36010693  0.63989554  0.13989384  1
  Cl  Cl74  1  0.13989887  0.36010677  0.63988869  1
  Cl  Cl75  1  0.86010398  0.13989229  0.63989651  1
