# generated using pymatgen
data_LiICl
_symmetry_space_group_name_H-M   'P 1'
_cell_length_a   8.86553514
_cell_length_b   10.71994616
_cell_length_c   9.02984347
_cell_angle_alpha   89.99043706
_cell_angle_beta   89.99628457
_cell_angle_gamma   89.99665796
_symmetry_Int_Tables_number   1
_chemical_formula_structural   LiICl
_chemical_formula_sum   'Li8 I8 Cl8'
_cell_volume   858.17878471
_cell_formula_units_Z   8
loop_
 _symmetry_equiv_pos_site_id
 _symmetry_equiv_pos_as_xyz
  1  'x, y, z'
loop_
 _atom_site_type_symbol
 _atom_site_label
 _atom_site_symmetry_multiplicity
 _atom_site_fract_x
 _atom_site_fract_y
 _atom_site_fract_z
 _atom_site_occupancy
  Li  Li0  1  0.11729763  0.04117309  0.12844815  1
  Li  Li1  1  0.88269819  -0.04120145  0.62844477  1
  Li  Li2  1  0.38268636  0.04118539  0.62843101  1
  Li  Li3  1  0.61727980  -0.04119340  0.12847032  1
  Li  Li4  1  0.21906974  0.51179790  0.10614968  1
  Li  Li5  1  0.71906622  0.48821218  0.10607939  1
  Li  Li6  1  0.28095326  0.51178350  0.60619996  1
  Li  Li7  1  0.78094196  0.48820973  0.60614067  1
  I  I8  1  0.05484394  0.19999553  0.36833878  1
  I  I9  1  -0.05482013  0.80001289  0.86829265  1
  I  I10  1  0.44514261  0.20000699  0.86837714  1
  I  I11  1  0.55491808  0.80000385  0.36826210  1
  I  I12  1  0.49042565  0.69188972  0.09344825  1
  I  I13  1  0.99044955  0.30809222  0.09341255  1
  I  I14  1  0.00952731  0.69192973  0.59344470  1
  I  I15  1  0.50954617  0.30808561  0.59345407  1
  Cl  Cl16  1  0.88133175  0.94339509  0.12700880  1
  Cl  Cl17  1  0.11864818  0.05660582  0.62702135  1
  Cl  Cl18  1  0.61868940  0.94342253  0.62709775  1
  Cl  Cl19  1  0.38134395  0.05663343  0.12696296  1
  Cl  Cl20  1  0.28798974  0.53684919  0.86031581  1
  Cl  Cl21  1  0.78799182  0.46310783  0.86041032  1
  Cl  Cl22  1  0.21198986  0.53688269  0.36034604  1
  Cl  Cl23  1  0.71198894  0.46311992  0.36040375  1
