# generated using pymatgen
data_NaBr6O7
_symmetry_space_group_name_H-M   'P 1'
_cell_length_a   9.07833541
_cell_length_b   8.53344201
_cell_length_c   11.16199118
_cell_angle_alpha   90.78930202
_cell_angle_beta   88.53157778
_cell_angle_gamma   118.25227184
_symmetry_Int_Tables_number   1
_chemical_formula_structural   NaBr6O7
_chemical_formula_sum   'Na2 Br12 O14'
_cell_volume   761.45023936
_cell_formula_units_Z   2
loop_
 _symmetry_equiv_pos_site_id
 _symmetry_equiv_pos_as_xyz
  1  'x, y, z'
loop_
 _atom_site_type_symbol
 _atom_site_label
 _atom_site_symmetry_multiplicity
 _atom_site_fract_x
 _atom_site_fract_y
 _atom_site_fract_z
 _atom_site_occupancy
  Na  Na0  1  0.01628212  0.04146194  0.53522832  1
  Na  Na1  1  0.05280953  0.22895395  0.18702043  1
  Br  Br2  1  0.75628290  0.16367339  0.79073872  1
  Br  Br3  1  0.19901215  0.44706706  0.70010706  1
  Br  Br4  1  0.82640272  0.91704511  0.77043850  1
  Br  Br5  1  0.37272574  0.15638724  0.71947790  1
  Br  Br6  1  0.66769612  0.41573854  0.80120977  1
  Br  Br7  1  0.18149634  0.72477721  0.67860545  1
  Br  Br8  1  0.15747964  0.84838067  0.31142176  1
  Br  Br9  1  0.36878374  0.27194196  0.30171011  1
  Br  Br10  1  0.67779003  0.49095866  0.21693539  1
  Br  Br11  1  0.22201762  0.59568955  0.28536893  1
  Br  Br12  1  0.73232926  0.91686862  0.16485273  1
  Br  Br13  1  0.70983693  0.19893524  0.18637305  1
  O  O14  1  0.86392154  0.36831024  0.49838978  1
  O  O15  1  -0.08000163  0.26992615  0.46117209  1
  O  O16  1  0.57591660  -0.09554644  0.47259438  1
  O  O17  1  0.51208729  0.00268211  0.48804347  1
  O  O18  1  0.61743785  0.56497482  0.53333457  1
  O  O19  1  0.75267873  0.67586717  0.48993599  1
  O  O20  1  0.18186488  -0.03332722  0.65516417  1
  O  O21  1  0.35163060  -0.02154543  0.01329655  1
  O  O22  1  0.39313764  0.86362474  -0.01153191  1
  O  O23  1  0.00478165  0.60792804  -0.01367670  1
  O  O24  1  0.04363922  0.48884904  -0.00251280  1
  O  O25  1  0.28566789  0.33036896  0.01245922  1
  O  O26  1  0.41273427  0.47357889  -0.00483770  1
  O  O27  1  0.14355863  0.08642978  0.33795788  1
