# generated using pymatgen
data_Na2BeS4
_symmetry_space_group_name_H-M   'P 1'
_cell_length_a   4.70940415
_cell_length_b   7.36512248
_cell_length_c   8.62506936
_cell_angle_alpha   90.00000947
_cell_angle_beta   90.00001403
_cell_angle_gamma   89.06551413
_symmetry_Int_Tables_number   1
_chemical_formula_structural   Na2BeS4
_chemical_formula_sum   'Na4 Be2 S8'
_cell_volume   299.12365941
_cell_formula_units_Z   2
loop_
 _symmetry_equiv_pos_site_id
 _symmetry_equiv_pos_as_xyz
  1  'x, y, z'
loop_
 _atom_site_type_symbol
 _atom_site_label
 _atom_site_symmetry_multiplicity
 _atom_site_fract_x
 _atom_site_fract_y
 _atom_site_fract_z
 _atom_site_occupancy
  Na  Na0  1  -0.00000099  -0.00000096  0.04637514  1
  Na  Na1  1  0.50000098  0.50000082  0.54638080  1
  Na  Na2  1  0.49999948  0.49999823  -0.04252315  1
  Na  Na3  1  0.00000043  0.00000184  0.45748822  1
  Be  Be4  1  0.50000396  -0.00000046  0.74962001  1
  Be  Be5  1  -0.00000403  0.50000051  0.24961659  1
  S  S6  1  0.71785379  0.27744341  0.28987328  1
  S  S7  1  0.71279334  0.72315382  0.20838644  1
  S  S8  1  0.28213978  0.72255687  0.28987392  1
  S  S9  1  0.28720028  0.27684682  0.20838602  1
  S  S10  1  0.21784649  0.77744588  0.78987143  1
  S  S11  1  0.21279663  0.22314983  0.70838997  1
  S  S12  1  0.78216002  0.22255378  0.78987124  1
  S  S13  1  0.78720985  0.77684961  0.70839008  1
