# generated using pymatgen
data_Li3PI2
_symmetry_space_group_name_H-M   'P 1'
_cell_length_a   6.67012528
_cell_length_b   6.67013061
_cell_length_c   4.21704433
_cell_angle_alpha   89.99999913
_cell_angle_beta   89.99999949
_cell_angle_gamma   120.01691500
_symmetry_Int_Tables_number   1
_chemical_formula_structural   Li3PI2
_chemical_formula_sum   'Li3 P1 I2'
_cell_volume   162.45499822
_cell_formula_units_Z   1
loop_
 _symmetry_equiv_pos_site_id
 _symmetry_equiv_pos_as_xyz
  1  'x, y, z'
loop_
 _atom_site_type_symbol
 _atom_site_label
 _atom_site_symmetry_multiplicity
 _atom_site_fract_x
 _atom_site_fract_y
 _atom_site_fract_z
 _atom_site_occupancy
  Li  Li0  1  0.49999967  -0.00000008  0.52056695  1
  Li  Li1  1  -0.00000008  0.49999967  0.52056695  1
  Li  Li2  1  0.49999943  0.49999943  0.52055479  1
  P  P3  1  0.00000111  0.00000111  0.52059701  1
  I  I4  1  0.33336839  0.66663177  0.02135715  1
  I  I5  1  0.66663149  0.33336811  0.02135715  1
