# generated using pymatgen
data_Li4Br3O
_symmetry_space_group_name_H-M   'P 1'
_cell_length_a   4.01915597
_cell_length_b   5.56194111
_cell_length_c   7.47669884
_cell_angle_alpha   82.77851380
_cell_angle_beta   89.61411606
_cell_angle_gamma   89.98104275
_symmetry_Int_Tables_number   1
_chemical_formula_structural   Li4Br3O
_chemical_formula_sum   'Li4 Br3 O1'
_cell_volume   165.80686391
_cell_formula_units_Z   1
loop_
 _symmetry_equiv_pos_site_id
 _symmetry_equiv_pos_as_xyz
  1  'x, y, z'
loop_
 _atom_site_type_symbol
 _atom_site_label
 _atom_site_symmetry_multiplicity
 _atom_site_fract_x
 _atom_site_fract_y
 _atom_site_fract_z
 _atom_site_occupancy
  Li  Li0  1  0.00412453  0.00774349  0.55471943  1
  Li  Li1  1  0.50154850  0.48755214  -0.24170375  1
  Li  Li2  1  -0.00171962  0.50682060  0.03478722  1
  Li  Li3  1  0.49636272  -0.14441368  0.11601778  1
  Br  Br4  1  -0.00514185  0.06928364  0.21112269  1
  Br  Br5  1  0.00451131  0.51025020  0.55920696  1
  Br  Br6  1  0.50149994  -0.01272889  0.76888070  1
  O  O7  1  0.49881447  0.57549251  -0.00303101  1
