# generated using pymatgen
data_Na2SI
_symmetry_space_group_name_H-M   'P 1'
_cell_length_a   5.82203384
_cell_length_b   5.82204727
_cell_length_c   13.35264711
_cell_angle_alpha   90.00006493
_cell_angle_beta   90.00030189
_cell_angle_gamma   90.00106839
_symmetry_Int_Tables_number   1
_chemical_formula_structural   Na2SI
_chemical_formula_sum   'Na8 S4 I4'
_cell_volume   452.60341229
_cell_formula_units_Z   4
loop_
 _symmetry_equiv_pos_site_id
 _symmetry_equiv_pos_as_xyz
  1  'x, y, z'
loop_
 _atom_site_type_symbol
 _atom_site_label
 _atom_site_symmetry_multiplicity
 _atom_site_fract_x
 _atom_site_fract_y
 _atom_site_fract_z
 _atom_site_occupancy
  Na  Na0  1  0.50000287  -0.00000080  -0.02738055  1
  Na  Na1  1  -0.00000208  0.50000151  0.47262384  1
  Na  Na2  1  0.50000319  0.00000088  0.46481909  1
  Na  Na3  1  0.77407204  0.77247582  0.26100430  1
  Na  Na4  1  0.22592661  0.22752635  0.26100487  1
  Na  Na5  1  -0.00000230  0.49999969  0.96481649  1
  Na  Na6  1  0.77246850  0.22592918  0.76100412  1
  Na  Na7  1  0.22752944  0.77406799  0.76100463  1
  S  S8  1  0.50000396  0.49999959  0.38506878  1
  S  S9  1  0.00000425  0.00000054  0.42993791  1
  S  S10  1  0.50000377  0.50000134  0.88507026  1
  S  S11  1  0.00000390  0.00000036  0.92993480  1
  I  I12  1  0.74123344  0.74251122  0.65983172  1
  I  I13  1  0.25875883  0.25748132  0.65982644  1
  I  I14  1  0.74250480  0.25876921  0.15984645  1
  I  I15  1  0.25748877  0.74123580  0.15984200  1
