# generated using pymatgen
data_NaBI2
_symmetry_space_group_name_H-M   'P 1'
_cell_length_a   4.77931634
_cell_length_b   4.77931626
_cell_length_c   7.65694115
_cell_angle_alpha   107.11314500
_cell_angle_beta   107.11314535
_cell_angle_gamma   92.49165946
_symmetry_Int_Tables_number   1
_chemical_formula_structural   NaBI2
_chemical_formula_sum   'Na1 B1 I2'
_cell_volume   158.12669872
_cell_formula_units_Z   1
loop_
 _symmetry_equiv_pos_site_id
 _symmetry_equiv_pos_as_xyz
  1  'x, y, z'
loop_
 _atom_site_type_symbol
 _atom_site_label
 _atom_site_symmetry_multiplicity
 _atom_site_fract_x
 _atom_site_fract_y
 _atom_site_fract_z
 _atom_site_occupancy
  Na  Na0  1  -0.08225802  -0.08225803  0.05773883  1
  B  B1  1  0.52484791  0.52484791  0.05921992  1
  I  I2  1  0.45006587  0.45006588  0.32209003  1
  I  I3  1  0.19067757  0.19067757  0.79565591  1
