# generated using pymatgen
data_Li2I2Cl
_symmetry_space_group_name_H-M   'P 1'
_cell_length_a   8.66732784
_cell_length_b   8.71089783
_cell_length_c   7.48732813
_cell_angle_alpha   89.99947923
_cell_angle_beta   89.99980814
_cell_angle_gamma   90.00030412
_symmetry_Int_Tables_number   1
_chemical_formula_structural   Li2I2Cl
_chemical_formula_sum   'Li8 I8 Cl4'
_cell_volume   565.29482524
_cell_formula_units_Z   4
loop_
 _symmetry_equiv_pos_site_id
 _symmetry_equiv_pos_as_xyz
  1  'x, y, z'
loop_
 _atom_site_type_symbol
 _atom_site_label
 _atom_site_symmetry_multiplicity
 _atom_site_fract_x
 _atom_site_fract_y
 _atom_site_fract_z
 _atom_site_occupancy
  Li  Li0  1  0.93873085  0.74995833  0.75003824  1
  Li  Li1  1  0.06111908  0.24994791  0.25004542  1
  Li  Li2  1  0.56127219  0.25004782  0.75004281  1
  Li  Li3  1  0.93894205  0.74995269  0.24995826  1
  Li  Li4  1  0.56106110  0.25004344  0.24996048  1
  Li  Li5  1  0.06091270  0.24995763  0.74996100  1
  Li  Li6  1  0.43908413  0.75004799  0.74995834  1
  Li  Li7  1  0.43887792  0.75003728  0.25003504  1
  I  I8  1  0.68228038  0.67519688  0.50005198  1
  I  I9  1  0.68223131  0.82472747  -0.00005525  1
  I  I10  1  0.31768887  0.32485819  0.49994730  1
  I  I11  1  0.31763757  0.17506086  0.00005640  1
  I  I12  1  0.81776852  0.17527120  -0.00005152  1
  I  I13  1  0.81771633  0.32481138  0.50005346  1
  I  I14  1  0.18236274  0.82494211  0.00005183  1
  I  I15  1  0.18231432  0.67513554  0.49994498  1
  Cl  Cl16  1  0.49994570  0.00007626  0.50000170  1
  Cl  Cl17  1  0.00011499  0.50029257  -0.00000107  1
  Cl  Cl18  1  0.49988435  0.49970900  0.00000195  1
  Cl  Cl19  1  0.00005488  -0.00007454  0.49999865  1
