# generated using pymatgen
data_Na3I2O
_symmetry_space_group_name_H-M   'P 1'
_cell_length_a   7.66389386
_cell_length_b   7.66391771
_cell_length_c   6.53978937
_cell_angle_alpha   90.00036979
_cell_angle_beta   90.00022555
_cell_angle_gamma   120.00643539
_symmetry_Int_Tables_number   1
_chemical_formula_structural   Na3I2O
_chemical_formula_sum   'Na6 I4 O2'
_cell_volume   332.63392561
_cell_formula_units_Z   2
loop_
 _symmetry_equiv_pos_site_id
 _symmetry_equiv_pos_as_xyz
  1  'x, y, z'
loop_
 _atom_site_type_symbol
 _atom_site_label
 _atom_site_symmetry_multiplicity
 _atom_site_fract_x
 _atom_site_fract_y
 _atom_site_fract_z
 _atom_site_occupancy
  Na  Na0  1  0.21929595  0.21929676  0.75000403  1
  Na  Na1  1  0.78070376  0.78070354  0.24999597  1
  Na  Na2  1  0.78071256  -0.00001132  0.75000028  1
  Na  Na3  1  0.00001171  0.21928486  0.25000058  1
  Na  Na4  1  -0.00001111  0.78071544  0.74999943  1
  Na  Na5  1  0.21928714  0.00001073  0.24999972  1
  I  I6  1  0.66666698  0.33333353  -0.00000001  1
  I  I7  1  0.33333302  0.66666647  0.00000001  1
  I  I8  1  0.66666703  0.33333354  0.50000000  1
  I  I9  1  0.33333297  0.66666646  0.50000000  1
  O  O10  1  0.00000000  -0.00000000  0.50000000  1
  O  O11  1  0.00000000  -0.00000000  -0.00000000  1
