# generated using pymatgen
data_LiN2Cl5
_symmetry_space_group_name_H-M   'P 1'
_cell_length_a   5.15315923
_cell_length_b   5.19948045
_cell_length_c   6.48856190
_cell_angle_alpha   86.02169368
_cell_angle_beta   88.53889598
_cell_angle_gamma   87.99838788
_symmetry_Int_Tables_number   1
_chemical_formula_structural   LiN2Cl5
_chemical_formula_sum   'Li1 N2 Cl5'
_cell_volume   173.28173915
_cell_formula_units_Z   1
loop_
 _symmetry_equiv_pos_site_id
 _symmetry_equiv_pos_as_xyz
  1  'x, y, z'
loop_
 _atom_site_type_symbol
 _atom_site_label
 _atom_site_symmetry_multiplicity
 _atom_site_fract_x
 _atom_site_fract_y
 _atom_site_fract_z
 _atom_site_occupancy
  Li  Li0  1  0.08434588  0.14953747  0.49893113  1
  N  N1  1  0.17926970  0.28413228  0.20086701  1
  N  N2  1  0.20954122  -0.21631154  0.01979249  1
  Cl  Cl3  1  0.32843452  0.49366354  0.09722224  1
  Cl  Cl4  1  -0.10910407  -0.17964373  0.06451945  1
  Cl  Cl5  1  0.60179707  0.65526143  0.57498367  1
  Cl  Cl6  1  0.60448964  0.15448284  0.58145407  1
  Cl  Cl7  1  0.10122603  0.65887772  0.57128925  1
