# generated using pymatgen
data_Li2BCl5
_symmetry_space_group_name_H-M   'P 1'
_cell_length_a   9.15718747
_cell_length_b   9.16772762
_cell_length_c   9.09553892
_cell_angle_alpha   89.99873209
_cell_angle_beta   89.99522276
_cell_angle_gamma   90.18968064
_symmetry_Int_Tables_number   1
_chemical_formula_structural   Li2BCl5
_chemical_formula_sum   'Li8 B4 Cl20'
_cell_volume   763.57176684
_cell_formula_units_Z   4
loop_
 _symmetry_equiv_pos_site_id
 _symmetry_equiv_pos_as_xyz
  1  'x, y, z'
loop_
 _atom_site_type_symbol
 _atom_site_label
 _atom_site_symmetry_multiplicity
 _atom_site_fract_x
 _atom_site_fract_y
 _atom_site_fract_z
 _atom_site_occupancy
  Li  Li0  1  0.23800972  0.63290154  0.95404826  1
  Li  Li1  1  0.58432629  0.69737329  0.54431201  1
  Li  Li2  1  0.76193075  0.36702329  0.45386462  1
  Li  Li3  1  0.41552718  0.30257236  0.04417977  1
  Li  Li4  1  0.79919460  0.08454865  0.79487685  1
  Li  Li5  1  0.86698439  0.74004965  0.20449642  1
  Li  Li6  1  0.13291625  0.26006354  0.70448766  1
  Li  Li7  1  0.20094190  0.91537904  0.29490898  1
  B  B8  1  0.62535367  0.69728417  -0.12624848  1
  B  B9  1  0.37463804  0.30274917  0.37367527  1
  B  B10  1  0.80163827  0.12562646  0.12387833  1
  B  B11  1  0.19841364  0.87434685  0.62392565  1
  Cl  Cl12  1  0.44995337  0.45248568  0.25756047  1
  Cl  Cl13  1  0.55002110  0.54746987  0.75777743  1
  Cl  Cl14  1  0.77441134  0.61837920  0.40909591  1
  Cl  Cl15  1  0.35628396  0.82944695  0.49166487  1
  Cl  Cl16  1  0.64378892  0.17049349  -0.00838654  1
  Cl  Cl17  1  0.22548390  0.38168173  -0.09102983  1
  Cl  Cl18  1  0.25941332  0.01421625  0.75673089  1
  Cl  Cl19  1  0.13598386  0.70680000  0.71392359  1
  Cl  Cl20  1  0.74058557  -0.01419453  0.25673763  1
  Cl  Cl21  1  0.86409018  0.29321767  0.21386244  1
  Cl  Cl22  1  -0.04931735  0.05091928  0.00717286  1
  Cl  Cl23  1  0.04941204  -0.05097984  0.50719104  1
  Cl  Cl24  1  0.67213185  0.85371457  0.74066126  1
  Cl  Cl25  1  -0.11833828  0.27194952  0.65754258  1
  Cl  Cl26  1  0.32786098  0.14623526  0.24064242  1
  Cl  Cl27  1  0.11831748  0.72804672  0.15765274  1
  Cl  Cl28  1  0.51488759  0.24085263  0.50530256  1
  Cl  Cl29  1  0.79219817  0.63545389  -0.03494167  1
  Cl  Cl30  1  0.20780851  0.36468924  0.46498020  1
  Cl  Cl31  1  0.48514878  0.75920439  0.00545381  1
