# generated using pymatgen
data_Li2SiCl5
_symmetry_space_group_name_H-M   'P 1'
_cell_length_a   7.62973150
_cell_length_b   7.62999298
_cell_length_c   7.08654772
_cell_angle_alpha   90.00079612
_cell_angle_beta   89.99930093
_cell_angle_gamma   90.00115608
_symmetry_Int_Tables_number   1
_chemical_formula_structural   Li2SiCl5
_chemical_formula_sum   'Li4 Si2 Cl10'
_cell_volume   412.54194248
_cell_formula_units_Z   2
loop_
 _symmetry_equiv_pos_site_id
 _symmetry_equiv_pos_as_xyz
  1  'x, y, z'
loop_
 _atom_site_type_symbol
 _atom_site_label
 _atom_site_symmetry_multiplicity
 _atom_site_fract_x
 _atom_site_fract_y
 _atom_site_fract_z
 _atom_site_occupancy
  Li  Li0  1  -0.00002605  0.49999780  0.62710962  1
  Li  Li1  1  0.49999802  -0.00000052  0.62711182  1
  Li  Li2  1  0.50001167  0.00000660  0.05568687  1
  Li  Li3  1  0.00000033  0.50001760  0.05567970  1
  Si  Si4  1  0.00000267  -0.00000156  0.28524884  1
  Si  Si5  1  0.49999674  0.49999965  0.83870188  1
  Cl  Cl6  1  0.50001660  0.49998970  0.53148664  1
  Cl  Cl7  1  0.92674724  0.72624631  0.35217542  1
  Cl  Cl8  1  0.72626158  0.07325760  0.35218857  1
  Cl  Cl9  1  0.07325433  0.27374777  0.35219126  1
  Cl  Cl10  1  0.27373969  0.92673675  0.35218641  1
  Cl  Cl11  1  0.00000508  -0.00000070  0.00200707  1
  Cl  Cl12  1  0.36562407  0.18398454  0.83936945  1
  Cl  Cl13  1  0.18396947  0.63437419  0.83933646  1
  Cl  Cl14  1  0.63438242  0.81602234  0.83935785  1
  Cl  Cl15  1  0.81601615  0.36562192  0.83938052  1
