# generated using pymatgen
data_Li5I3O4
_symmetry_space_group_name_H-M   'P 1'
_cell_length_a   8.34707586
_cell_length_b   9.19214530
_cell_length_c   6.96024604
_cell_angle_alpha   96.13089286
_cell_angle_beta   83.23607692
_cell_angle_gamma   85.52432050
_symmetry_Int_Tables_number   1
_chemical_formula_structural   Li5I3O4
_chemical_formula_sum   'Li10 I6 O8'
_cell_volume   525.06703139
_cell_formula_units_Z   2
loop_
 _symmetry_equiv_pos_site_id
 _symmetry_equiv_pos_as_xyz
  1  'x, y, z'
loop_
 _atom_site_type_symbol
 _atom_site_label
 _atom_site_symmetry_multiplicity
 _atom_site_fract_x
 _atom_site_fract_y
 _atom_site_fract_z
 _atom_site_occupancy
  Li  Li0  1  0.03018836  -0.06134222  0.69208159  1
  Li  Li1  1  -0.19997708  0.03575922  0.33127741  1
  Li  Li2  1  0.56900429  0.92823872  0.62609371  1
  Li  Li3  1  0.38424357  0.14287099  0.38653571  1
  Li  Li4  1  0.19831254  0.41027343  0.83162464  1
  Li  Li5  1  0.82483290  0.57792441  0.08535310  1
  Li  Li6  1  0.57236086  0.24810909  0.67242546  1
  Li  Li7  1  0.55497121  0.86151274  0.14331399  1
  Li  Li8  1  0.89661154  0.37652300  0.81316707  1
  Li  Li9  1  0.12501956  0.58915749  0.11157739  1
  I  I10  1  0.75723014  0.04322668  -0.05459281  1
  I  I11  1  0.29006056  0.90096317  -0.10099200  1
  I  I12  1  0.04795552  0.18568837  0.48925011  1
  I  I13  1  0.89175305  0.74518098  0.43248556  1
  I  I14  1  0.39826300  0.45731458  0.36958429  1
  I  I15  1  0.51791591  0.56174342  0.85034506  1
  O  O16  1  0.49959793  0.96650637  0.39243952  1
  O  O17  1  0.59400510  0.08935778  0.47325149  1
  O  O18  1  0.00929447  0.54749741  -0.10976232  1
  O  O19  1  0.00731715  0.42632683  0.02935693  1
  O  O20  1  0.35184861  0.50423625  0.02278689  1
  O  O21  1  0.66669067  0.39949499  0.82449431  1
  O  O22  1  0.61713548  0.66344965  0.04155870  1
  O  O23  1  0.39536467  0.39998664  0.64634420  1
