# generated using pymatgen
data_Li4P3I
_symmetry_space_group_name_H-M   'P 1'
_cell_length_a   9.88751320
_cell_length_b   9.88803913
_cell_length_c   5.48461747
_cell_angle_alpha   90.00255701
_cell_angle_beta   89.99630277
_cell_angle_gamma   120.00748866
_symmetry_Int_Tables_number   1
_chemical_formula_structural   Li4P3I
_chemical_formula_sum   'Li12 P9 I3'
_cell_volume   464.34572218
_cell_formula_units_Z   3
loop_
 _symmetry_equiv_pos_site_id
 _symmetry_equiv_pos_as_xyz
  1  'x, y, z'
loop_
 _atom_site_type_symbol
 _atom_site_label
 _atom_site_symmetry_multiplicity
 _atom_site_fract_x
 _atom_site_fract_y
 _atom_site_fract_z
 _atom_site_occupancy
  Li  Li0  1  0.46645574  0.36172254  0.31212847  1
  Li  Li1  1  0.63821310  0.10475319  0.31207897  1
  Li  Li2  1  0.89533062  0.53351855  0.31201180  1
  Li  Li3  1  0.00003191  0.00003450  0.71370529  1
  Li  Li4  1  0.79979948  0.02841112  -0.02123144  1
  Li  Li5  1  -0.02846579  0.77141003  -0.02128402  1
  Li  Li6  1  0.22866430  0.20017629  -0.02132010  1
  Li  Li7  1  0.33336653  0.66669770  0.38038446  1
  Li  Li8  1  0.13313297  0.69506441  0.64544870  1
  Li  Li9  1  0.30487812  0.43809019  0.64541742  1
  Li  Li10  1  0.56199203  -0.13315512  0.64534828  1
  Li  Li11  1  0.66669566  0.33336266  0.04705441  1
  P  P12  1  0.68801678  0.59949151  0.11644235  1
  P  P13  1  0.02136457  0.26616744  0.78311351  1
  P  P14  1  0.35469654  0.93283061  0.44978380  1
  P  P15  1  0.06714473  0.42184289  0.44979252  1
  P  P16  1  0.40047551  0.08850195  0.11646118  1
  P  P17  1  0.73380442  0.75517303  0.78312195  1
  P  P18  1  0.91146661  0.31194334  0.11645426  1
  P  P19  1  0.24479585  -0.02139717  0.78312113  1
  P  P20  1  0.57812555  0.64526737  0.44978618  1
  I  I21  1  -0.00000097  0.00002274  0.25483474  1
  I  I22  1  0.33333885  0.66670188  0.92151939  1
  I  I23  1  0.66667687  0.33336835  0.58818314  1
