# generated using pymatgen
data_Li2BrN4
_symmetry_space_group_name_H-M   'P 1'
_cell_length_a   12.08531236
_cell_length_b   8.64923511
_cell_length_c   4.71334376
_cell_angle_alpha   89.06224069
_cell_angle_beta   90.67219191
_cell_angle_gamma   91.51583096
_symmetry_Int_Tables_number   1
_chemical_formula_structural   Li2BrN4
_chemical_formula_sum   'Li8 Br4 N16'
_cell_volume   492.40989344
_cell_formula_units_Z   4
loop_
 _symmetry_equiv_pos_site_id
 _symmetry_equiv_pos_as_xyz
  1  'x, y, z'
loop_
 _atom_site_type_symbol
 _atom_site_label
 _atom_site_symmetry_multiplicity
 _atom_site_fract_x
 _atom_site_fract_y
 _atom_site_fract_z
 _atom_site_occupancy
  Li  Li0  1  0.11632111  0.34801846  -0.10654668  1
  Li  Li1  1  0.05615114  0.97955721  -0.10270713  1
  Li  Li2  1  0.05796344  0.71278533  0.38536956  1
  Li  Li3  1  0.14220407  0.14373730  0.41229457  1
  Li  Li4  1  0.32300770  0.18887704  0.58491268  1
  Li  Li5  1  0.31848205  0.85190033  0.35683793  1
  Li  Li6  1  0.52424993  0.58146854  0.18179048  1
  Li  Li7  1  0.43449669  0.09663094  0.08208436  1
  Br  Br8  1  0.01900503  0.62090790  -0.11850624  1
  Br  Br9  1  -0.02825966  -0.03467894  0.38979937  1
  Br  Br10  1  0.53015898  0.29681043  0.39698264  1
  Br  Br11  1  0.44947440  -0.17247668  -0.14021533  1
  N  N12  1  0.38915371  0.48530491  0.96633223  1
  N  N13  1  0.17173199  0.38859774  0.32246771  1
  N  N14  1  0.92494000  0.32947451  0.48322130  1
  N  N15  1  0.68872883  0.10112434  0.91315986  1
  N  N16  1  0.27163413  0.11556361  -0.02278224  1
  N  N17  1  0.20243191  0.51889968  0.35080114  1
  N  N18  1  0.86026430  0.36660699  0.32775701  1
  N  N19  1  0.77933886  0.12581783  0.89281343  1
  N  N20  1  0.63846603  0.76342634  0.36219197  1
  N  N21  1  0.73784353  0.52557752  0.79016955  1
  N  N22  1  0.22971718  0.65013538  0.37834377  1
  N  N23  1  0.17777800  0.14070917  0.84297347  1
  N  N24  1  0.66307159  0.54126674  0.92143383  1
  N  N25  1  0.69472783  -0.13586298  0.40895990  1
  N  N26  1  0.34632530  0.40747916  0.80968730  1
  N  N27  1  0.28059193  0.06234120  0.23583946  1
