# generated using pymatgen
data_K(IN)2
_symmetry_space_group_name_H-M   'P 1'
_cell_length_a   5.26827121
_cell_length_b   5.26831447
_cell_length_c   11.75719641
_cell_angle_alpha   89.99995784
_cell_angle_beta   89.99995446
_cell_angle_gamma   90.00050897
_symmetry_Int_Tables_number   1
_chemical_formula_structural   K(IN)2
_chemical_formula_sum   'K2 I4 N4'
_cell_volume   326.31992145
_cell_formula_units_Z   2
loop_
 _symmetry_equiv_pos_site_id
 _symmetry_equiv_pos_as_xyz
  1  'x, y, z'
loop_
 _atom_site_type_symbol
 _atom_site_label
 _atom_site_symmetry_multiplicity
 _atom_site_fract_x
 _atom_site_fract_y
 _atom_site_fract_z
 _atom_site_occupancy
  K  K0  1  0.49999880  0.50000006  0.75000085  1
  K  K1  1  0.49999881  0.50000002  0.24999916  1
  I  I2  1  0.00000555  0.49999943  -0.00000000  1
  I  I3  1  -0.00000658  0.00000265  0.74999974  1
  I  I4  1  -0.00000608  0.00000243  0.25000026  1
  I  I5  1  0.49998443  -0.00003304  0.50000000  1
  N  N6  1  0.19111092  0.72614910  0.49999999  1
  N  N7  1  0.72613768  0.80890187  -0.00000035  1
  N  N8  1  0.80891767  0.27387366  0.50000001  1
  N  N9  1  0.27385879  0.19110383  0.00000035  1
