# generated using pymatgen
data_KSCl7
_symmetry_space_group_name_H-M   'P 1'
_cell_length_a   5.90344588
_cell_length_b   5.90310884
_cell_length_c   7.72412457
_cell_angle_alpha   90.00007183
_cell_angle_beta   90.00003639
_cell_angle_gamma   119.92958761
_symmetry_Int_Tables_number   1
_chemical_formula_structural   KSCl7
_chemical_formula_sum   'K1 S1 Cl7'
_cell_volume   233.27810663
_cell_formula_units_Z   1
loop_
 _symmetry_equiv_pos_site_id
 _symmetry_equiv_pos_as_xyz
  1  'x, y, z'
loop_
 _atom_site_type_symbol
 _atom_site_label
 _atom_site_symmetry_multiplicity
 _atom_site_fract_x
 _atom_site_fract_y
 _atom_site_fract_z
 _atom_site_occupancy
  K  K0  1  -0.00000001  -0.00000002  0.49999634  1
  S  S1  1  -0.00000005  -0.00000010  0.00000302  1
  Cl  Cl2  1  0.50000013  0.00000015  0.00000443  1
  Cl  Cl3  1  -0.00000001  0.50000008  0.00000433  1
  Cl  Cl4  1  0.50000008  0.50000002  0.00000440  1
  Cl  Cl5  1  0.33331113  0.66668621  0.63295849  1
  Cl  Cl6  1  0.33331018  0.66668540  0.36673773  1
  Cl  Cl7  1  0.66668873  0.33331369  0.36703321  1
  Cl  Cl8  1  0.66668981  0.33331458  0.63325805  1
