# generated using pymatgen
data_K3SO4
_symmetry_space_group_name_H-M   'P 1'
_cell_length_a   6.38824831
_cell_length_b   6.38826342
_cell_length_c   7.09457381
_cell_angle_alpha   90.03455644
_cell_angle_beta   90.03442677
_cell_angle_gamma   75.78241847
_symmetry_Int_Tables_number   1
_chemical_formula_structural   K3SO4
_chemical_formula_sum   'K6 S2 O8'
_cell_volume   280.65990794
_cell_formula_units_Z   2
loop_
 _symmetry_equiv_pos_site_id
 _symmetry_equiv_pos_as_xyz
  1  'x, y, z'
loop_
 _atom_site_type_symbol
 _atom_site_label
 _atom_site_symmetry_multiplicity
 _atom_site_fract_x
 _atom_site_fract_y
 _atom_site_fract_z
 _atom_site_occupancy
  K  K0  1  0.00098278  0.00099157  0.39550799  1
  K  K1  1  0.50104159  0.50103189  -0.10439810  1
  K  K2  1  0.00037852  0.49994091  0.10630038  1
  K  K3  1  0.49990888  0.00040700  0.10607151  1
  K  K4  1  0.50024665  0.00011580  0.60634987  1
  K  K5  1  0.00012619  0.50024270  0.60623510  1
  S  S6  1  0.49970724  0.49970236  0.40540949  1
  S  S7  1  -0.00017593  -0.00017075  0.90536856  1
  O  O8  1  0.16292163  0.16288440  0.83969120  1
  O  O9  1  0.84190532  0.15803406  0.03605303  1
  O  O10  1  0.83627275  0.83627659  0.84041867  1
  O  O11  1  0.15802063  0.84206081  0.03614848  1
  O  O12  1  0.66247858  0.66265291  0.33910196  1
  O  O13  1  0.34208259  0.65796251  0.53628073  1
  O  O14  1  0.33588632  0.33582802  0.34098136  1
  O  O15  1  0.65821626  0.34203921  0.53607967  1
