# generated using pymatgen
data_K2BrO2
_symmetry_space_group_name_H-M   'P 1'
_cell_length_a   5.29694376
_cell_length_b   5.30070193
_cell_length_c   9.97546591
_cell_angle_alpha   89.99819042
_cell_angle_beta   90.00413837
_cell_angle_gamma   89.94649939
_symmetry_Int_Tables_number   1
_chemical_formula_structural   K2BrO2
_chemical_formula_sum   'K4 Br2 O4'
_cell_volume   280.08622086
_cell_formula_units_Z   2
loop_
 _symmetry_equiv_pos_site_id
 _symmetry_equiv_pos_as_xyz
  1  'x, y, z'
loop_
 _atom_site_type_symbol
 _atom_site_label
 _atom_site_symmetry_multiplicity
 _atom_site_fract_x
 _atom_site_fract_y
 _atom_site_fract_z
 _atom_site_occupancy
  K  K0  1  0.00572240  0.50691331  0.25200558  1
  K  K1  1  0.50679371  0.00553067  0.74853693  1
  K  K2  1  0.00664320  0.50548321  0.75146159  1
  K  K3  1  0.50582274  0.00692538  0.24799080  1
  Br  Br4  1  0.00627869  0.00639790  0.50002993  1
  Br  Br5  1  0.50631644  0.50632512  -0.00004958  1
  O  O6  1  0.50572203  0.50698141  0.19930323  1
  O  O7  1  0.50670803  0.50549155  0.80063115  1
  O  O8  1  0.00571800  0.00697108  0.30074471  1
  O  O9  1  0.00677475  0.00548037  0.69934567  1
