# generated using pymatgen
data_K3S5Br8
_symmetry_space_group_name_H-M   'P 1'
_cell_length_a   7.61998179
_cell_length_b   7.61997916
_cell_length_c   7.61997885
_cell_angle_alpha   90.00000902
_cell_angle_beta   90.00001027
_cell_angle_gamma   90.00000133
_symmetry_Int_Tables_number   1
_chemical_formula_structural   K3S5Br8
_chemical_formula_sum   'K3 S5 Br8'
_cell_volume   442.44723220
_cell_formula_units_Z   1
loop_
 _symmetry_equiv_pos_site_id
 _symmetry_equiv_pos_as_xyz
  1  'x, y, z'
loop_
 _atom_site_type_symbol
 _atom_site_label
 _atom_site_symmetry_multiplicity
 _atom_site_fract_x
 _atom_site_fract_y
 _atom_site_fract_z
 _atom_site_occupancy
  K  K0  1  0.00000001  0.50000000  0.50000000  1
  K  K1  1  0.49999999  0.50000000  -0.00000000  1
  K  K2  1  0.50000000  -0.00000000  0.50000000  1
  S  S3  1  0.00000002  0.00000002  0.00000001  1
  S  S4  1  0.00000000  -0.00000000  0.50000000  1
  S  S5  1  0.00000000  0.50000000  -0.00000000  1
  S  S6  1  0.50000000  -0.00000000  -0.00000001  1
  S  S7  1  0.50000001  0.49999999  0.49999998  1
  Br  Br8  1  0.75948340  0.24051654  0.75948345  1
  Br  Br9  1  0.24051660  0.75948345  0.24051654  1
  Br  Br10  1  0.75948342  0.24051654  0.24051656  1
  Br  Br11  1  0.24051661  0.24051658  0.75948318  1
  Br  Br12  1  0.75948338  0.75948343  0.24051682  1
  Br  Br13  1  0.24051658  0.75948344  0.75948346  1
  Br  Br14  1  0.75948344  0.75948349  0.75948373  1
  Br  Br15  1  0.24051655  0.24051652  0.24051628  1
