# generated using pymatgen
data_KBrO4
_symmetry_space_group_name_H-M   'P 1'
_cell_length_a   7.53744621
_cell_length_b   7.53744836
_cell_length_c   8.56546564
_cell_angle_alpha   90.00002978
_cell_angle_beta   90.00001159
_cell_angle_gamma   90.00001961
_symmetry_Int_Tables_number   1
_chemical_formula_structural   KBrO4
_chemical_formula_sum   'K4 Br4 O16'
_cell_volume   486.63075532
_cell_formula_units_Z   4
loop_
 _symmetry_equiv_pos_site_id
 _symmetry_equiv_pos_as_xyz
  1  'x, y, z'
loop_
 _atom_site_type_symbol
 _atom_site_label
 _atom_site_symmetry_multiplicity
 _atom_site_fract_x
 _atom_site_fract_y
 _atom_site_fract_z
 _atom_site_occupancy
  K  K0  1  0.00000252  -0.00000237  0.50000003  1
  K  K1  1  0.49999768  0.50000237  -0.00000005  1
  K  K2  1  -0.00000205  0.00000234  0.00000003  1
  K  K3  1  0.50000216  0.49999776  0.49999999  1
  Br  Br4  1  0.49999856  0.00000151  0.49991496  1
  Br  Br5  1  0.00000130  0.49999858  0.00008509  1
  Br  Br6  1  -0.00000158  0.50000161  0.50008497  1
  Br  Br7  1  0.50000151  -0.00000142  -0.00008500  1
  O  O8  1  0.17035659  0.77175429  0.25010180  1
  O  O9  1  0.82965226  0.22824266  0.25011443  1
  O  O10  1  0.82965454  0.77175786  0.25010616  1
  O  O11  1  0.17035858  0.22824612  0.25011005  1
  O  O12  1  0.32964345  0.72824545  0.24989812  1
  O  O13  1  0.67034772  0.27175725  0.24988565  1
  O  O14  1  0.67034543  0.72824221  0.24989380  1
  O  O15  1  0.32964144  0.27175394  0.24988997  1
  O  O16  1  0.22824319  0.82965196  0.74989822  1
  O  O17  1  0.77175558  0.17035502  0.74988563  1
  O  O18  1  0.22824228  0.17034613  0.74989383  1
  O  O19  1  0.77175395  0.82964141  0.74989005  1
  O  O20  1  0.27175688  0.67034809  0.75010183  1
  O  O21  1  0.72824502  0.32964483  0.75011433  1
  O  O22  1  0.27175727  0.32965391  0.75010621  1
  O  O23  1  0.72824571  0.67035851  0.75010994  1
