# generated using pymatgen
data_LiP2I
_symmetry_space_group_name_H-M   'P 1'
_cell_length_a   6.85086700
_cell_length_b   6.85086661
_cell_length_c   6.85086661
_cell_angle_alpha   90.00000397
_cell_angle_beta   90.00000408
_cell_angle_gamma   90.00000356
_symmetry_Int_Tables_number   1
_chemical_formula_structural   LiP2I
_chemical_formula_sum   'Li4 P8 I4'
_cell_volume   321.54114943
_cell_formula_units_Z   4
loop_
 _symmetry_equiv_pos_site_id
 _symmetry_equiv_pos_as_xyz
  1  'x, y, z'
loop_
 _atom_site_type_symbol
 _atom_site_label
 _atom_site_symmetry_multiplicity
 _atom_site_fract_x
 _atom_site_fract_y
 _atom_site_fract_z
 _atom_site_occupancy
  Li  Li0  1  0.24999945  0.25000117  0.74999983  1
  Li  Li1  1  0.24999945  0.74999883  0.25000017  1
  Li  Li2  1  0.75000055  0.25000117  0.25000017  1
  Li  Li3  1  0.75000055  0.74999883  0.74999983  1
  P  P4  1  -0.00000000  0.50000000  0.50000000  1
  P  P5  1  0.50000000  0.50000000  -0.00000000  1
  P  P6  1  0.50000000  0.00000000  0.50000000  1
  P  P7  1  -0.00000000  0.50000000  -0.00000000  1
  P  P8  1  0.50000000  -0.00000000  -0.00000000  1
  P  P9  1  0.00000000  -0.00000000  0.50000000  1
  P  P10  1  0.50000000  0.50000000  0.50000000  1
  P  P11  1  0.00000000  0.00000000  0.00000000  1
  I  I12  1  0.74999950  0.75000086  0.24999985  1
  I  I13  1  0.74999950  0.24999914  0.75000015  1
  I  I14  1  0.25000050  0.75000086  0.75000015  1
  I  I15  1  0.25000050  0.24999914  0.24999985  1
