# generated using pymatgen
data_K2IN2
_symmetry_space_group_name_H-M   'P 1'
_cell_length_a   6.53900896
_cell_length_b   5.68128913
_cell_length_c   8.39310495
_cell_angle_alpha   90.00235646
_cell_angle_beta   89.99444518
_cell_angle_gamma   89.99922593
_symmetry_Int_Tables_number   1
_chemical_formula_structural   K2IN2
_chemical_formula_sum   'K4 I2 N4'
_cell_volume   311.80385131
_cell_formula_units_Z   2
loop_
 _symmetry_equiv_pos_site_id
 _symmetry_equiv_pos_as_xyz
  1  'x, y, z'
loop_
 _atom_site_type_symbol
 _atom_site_label
 _atom_site_symmetry_multiplicity
 _atom_site_fract_x
 _atom_site_fract_y
 _atom_site_fract_z
 _atom_site_occupancy
  K  K0  1  -0.00010602  -0.00001190  -0.19649224  1
  K  K1  1  0.00006960  -0.00001295  0.30355544  1
  K  K2  1  0.50006118  0.50001607  0.30149281  1
  K  K3  1  0.49990732  0.50002017  0.80151876  1
  I  I4  1  0.50029517  -0.00000576  0.05126282  1
  I  I5  1  0.49980835  -0.00000138  0.55126864  1
  N  N6  1  -0.09006169  0.49938253  0.30323638  1
  N  N7  1  0.09019457  -0.49939630  0.30311206  1
  N  N8  1  -0.09021824  -0.49955241  0.80309523  1
  N  N9  1  0.09004976  0.49956193  0.80321761  1
