# generated using pymatgen
data_KIO4
_symmetry_space_group_name_H-M   'P 1'
_cell_length_a   7.78507250
_cell_length_b   7.78507808
_cell_length_c   7.78507396
_cell_angle_alpha   89.99990518
_cell_angle_beta   90.00000501
_cell_angle_gamma   90.00001019
_symmetry_Int_Tables_number   1
_chemical_formula_structural   KIO4
_chemical_formula_sum   'K4 I4 O16'
_cell_volume   471.83307029
_cell_formula_units_Z   4
loop_
 _symmetry_equiv_pos_site_id
 _symmetry_equiv_pos_as_xyz
  1  'x, y, z'
loop_
 _atom_site_type_symbol
 _atom_site_label
 _atom_site_symmetry_multiplicity
 _atom_site_fract_x
 _atom_site_fract_y
 _atom_site_fract_z
 _atom_site_occupancy
  K  K0  1  0.25000083  0.25000043  0.25000023  1
  K  K1  1  0.75000013  0.74999965  0.25000028  1
  K  K2  1  0.25000097  0.74999910  0.75000045  1
  K  K3  1  0.75000012  0.25000046  0.74999939  1
  I  I4  1  0.50000000  -0.00000026  -0.00000031  1
  I  I5  1  -0.00000121  0.50000030  -0.00000054  1
  I  I6  1  0.50000011  0.50000118  0.50000015  1
  I  I7  1  0.00000029  -0.00000128  0.50000126  1
  O  O8  1  0.40114636  0.90114682  0.40114705  1
  O  O9  1  0.90114685  0.40114685  0.40114708  1
  O  O10  1  0.40114625  0.40114661  0.90114680  1
  O  O11  1  0.90114673  0.90114695  0.90114738  1
  O  O12  1  0.59885368  0.90114663  0.59885388  1
  O  O13  1  0.09885266  0.09885286  0.90114651  1
  O  O14  1  0.40114601  0.59885387  0.09885330  1
  O  O15  1  0.59885393  0.59885422  0.90114539  1
  O  O16  1  0.90114730  0.09885221  0.09885246  1
  O  O17  1  0.09885325  0.40114650  0.59885331  1
  O  O18  1  0.59885383  0.40114608  0.09885368  1
  O  O19  1  0.40114676  0.09885308  0.59885330  1
  O  O20  1  0.09885318  0.59885354  0.40114598  1
  O  O21  1  0.59885328  0.09885325  0.40114660  1
  O  O22  1  0.09885242  0.90114706  0.09885281  1
  O  O23  1  0.90114628  0.59885386  0.59885355  1
