# generated using pymatgen
data_KLiI2
_symmetry_space_group_name_H-M   'P 1'
_cell_length_a   4.55278003
_cell_length_b   7.93537121
_cell_length_c   4.16758403
_cell_angle_alpha   89.99972412
_cell_angle_beta   89.99987943
_cell_angle_gamma   102.84803602
_symmetry_Int_Tables_number   1
_chemical_formula_structural   KLiI2
_chemical_formula_sum   'K1 Li1 I2'
_cell_volume   146.79678178
_cell_formula_units_Z   1
loop_
 _symmetry_equiv_pos_site_id
 _symmetry_equiv_pos_as_xyz
  1  'x, y, z'
loop_
 _atom_site_type_symbol
 _atom_site_label
 _atom_site_symmetry_multiplicity
 _atom_site_fract_x
 _atom_site_fract_y
 _atom_site_fract_z
 _atom_site_occupancy
  K  K0  1  0.04198556  0.00064855  0.50000079  1
  Li  Li1  1  0.54164894  0.49988081  0.49999987  1
  I  I2  1  0.64098285  0.26679230  -0.00000073  1
  I  I3  1  0.44204932  0.73267834  0.00000007  1
