# generated using pymatgen
data_NaCS2
_symmetry_space_group_name_H-M   'P 1'
_cell_length_a   6.92498764
_cell_length_b   7.08553335
_cell_length_c   7.24958490
_cell_angle_alpha   97.65789452
_cell_angle_beta   107.29124109
_cell_angle_gamma   79.83434818
_symmetry_Int_Tables_number   1
_chemical_formula_structural   NaCS2
_chemical_formula_sum   'Na4 C4 S8'
_cell_volume   333.07126685
_cell_formula_units_Z   4
loop_
 _symmetry_equiv_pos_site_id
 _symmetry_equiv_pos_as_xyz
  1  'x, y, z'
loop_
 _atom_site_type_symbol
 _atom_site_label
 _atom_site_symmetry_multiplicity
 _atom_site_fract_x
 _atom_site_fract_y
 _atom_site_fract_z
 _atom_site_occupancy
  Na  Na0  1  0.48715140  0.04675877  0.76530574  1
  Na  Na1  1  -0.00797597  -0.09764753  0.15937316  1
  Na  Na2  1  0.54764989  0.44958473  0.50002307  1
  Na  Na3  1  -0.06788766  0.41525501  0.23113482  1
  C  C4  1  0.12070119  0.51481862  0.70796989  1
  C  C5  1  -0.10584668  -0.21269744  0.41965439  1
  C  C6  1  0.45961300  0.68011897  -0.05239930  1
  C  C7  1  0.49727643  0.01365842  0.24408998  1
  S  S8  1  0.96983168  0.34418716  0.63583004  1
  S  S9  1  0.10873177  0.72099957  0.58688598  1
  S  S10  1  0.65025544  0.80345557  0.41549741  1
  S  S11  1  0.31911880  0.14080461  0.37519193  1
  S  S12  1  0.34184303  0.47512523  0.89920769  1
  S  S13  1  0.69855725  0.65183213  0.90865876  1
  S  S14  1  0.32670391  0.89864986  0.01660633  1
  S  S15  1  0.65427649  0.15509632  0.18697010  1
