# generated using pymatgen
data_Li5I4Br
_symmetry_space_group_name_H-M   'P 1'
_cell_length_a   11.18164871
_cell_length_b   11.18165898
_cell_length_c   5.65522775
_cell_angle_alpha   89.99936276
_cell_angle_beta   89.99931415
_cell_angle_gamma   89.99978563
_symmetry_Int_Tables_number   1
_chemical_formula_structural   Li5I4Br
_chemical_formula_sum   'Li10 I8 Br2'
_cell_volume   707.06963491
_cell_formula_units_Z   2
loop_
 _symmetry_equiv_pos_site_id
 _symmetry_equiv_pos_as_xyz
  1  'x, y, z'
loop_
 _atom_site_type_symbol
 _atom_site_label
 _atom_site_symmetry_multiplicity
 _atom_site_fract_x
 _atom_site_fract_y
 _atom_site_fract_z
 _atom_site_occupancy
  Li  Li0  1  0.38086352  0.09492606  0.75006043  1
  Li  Li1  1  0.90507448  0.61913628  0.74993928  1
  Li  Li2  1  0.61913770  0.09492339  0.24992551  1
  Li  Li3  1  0.90507641  0.38086242  0.25007451  1
  Li  Li4  1  0.61913582  0.90507405  0.75007782  1
  Li  Li5  1  0.09492596  0.38086358  0.74992226  1
  Li  Li6  1  0.38086201  0.90507662  0.24993073  1
  Li  Li7  1  0.09492391  0.61913759  0.25006940  1
  Li  Li8  1  0.49999848  0.49999554  0.00000005  1
  Li  Li9  1  0.50000098  0.50000413  0.49999991  1
  I  I10  1  0.14716639  0.37657752  0.25003334  1
  I  I11  1  0.62342226  0.85283357  0.24996662  1
  I  I12  1  0.14716471  0.62342605  0.74995952  1
  I  I13  1  0.37657315  0.85283629  0.75004046  1
  I  I14  1  0.85283389  0.62342262  0.25004119  1
  I  I15  1  0.37657760  0.14716649  0.24995884  1
  I  I16  1  0.85283588  0.37657371  0.74997296  1
  I  I17  1  0.62342653  0.14716396  0.75002715  1
  Br  Br18  1  0.00000019  0.00000017  0.00000007  1
  Br  Br19  1  0.00000012  -0.00000002  0.49999993  1
