# generated using pymatgen
data_KSiI2
_symmetry_space_group_name_H-M   'P 1'
_cell_length_a   8.34702974
_cell_length_b   8.34702940
_cell_length_c   8.34703059
_cell_angle_alpha   90.00001949
_cell_angle_beta   90.00000468
_cell_angle_gamma   90.00000297
_symmetry_Int_Tables_number   1
_chemical_formula_structural   KSiI2
_chemical_formula_sum   'K4 Si4 I8'
_cell_volume   581.56185008
_cell_formula_units_Z   4
loop_
 _symmetry_equiv_pos_site_id
 _symmetry_equiv_pos_as_xyz
  1  'x, y, z'
loop_
 _atom_site_type_symbol
 _atom_site_label
 _atom_site_symmetry_multiplicity
 _atom_site_fract_x
 _atom_site_fract_y
 _atom_site_fract_z
 _atom_site_occupancy
  K  K0  1  0.50000046  0.00000056  0.49999871  1
  K  K1  1  -0.00000056  0.00000054  0.00000130  1
  K  K2  1  -0.00000041  0.49999942  0.49999877  1
  K  K3  1  0.50000063  0.49999943  0.00000121  1
  Si  Si4  1  0.24999997  0.25000001  0.74999999  1
  Si  Si5  1  0.74999997  0.24999999  0.25000000  1
  Si  Si6  1  0.24999997  0.75000001  0.25000001  1
  Si  Si7  1  0.74999997  0.75000001  0.75000001  1
  I  I8  1  0.49999949  -0.00000056  -0.00000127  1
  I  I9  1  0.00000053  -0.00000056  0.50000128  1
  I  I10  1  0.49999948  0.50000057  0.50000128  1
  I  I11  1  0.00000052  0.50000057  -0.00000128  1
  I  I12  1  0.25000000  0.25000000  0.24999999  1
  I  I13  1  0.75000000  0.75000000  0.25000000  1
  I  I14  1  0.24999999  0.75000000  0.75000000  1
  I  I15  1  0.74999999  0.25000000  0.75000000  1
