# generated using pymatgen
data_LiSN3
_symmetry_space_group_name_H-M   'P 1'
_cell_length_a   8.86157032
_cell_length_b   5.04339261
_cell_length_c   6.25022290
_cell_angle_alpha   90.00527434
_cell_angle_beta   89.99994680
_cell_angle_gamma   89.99999406
_symmetry_Int_Tables_number   1
_chemical_formula_structural   LiSN3
_chemical_formula_sum   'Li4 S4 N12'
_cell_volume   279.33732496
_cell_formula_units_Z   4
loop_
 _symmetry_equiv_pos_site_id
 _symmetry_equiv_pos_as_xyz
  1  'x, y, z'
loop_
 _atom_site_type_symbol
 _atom_site_label
 _atom_site_symmetry_multiplicity
 _atom_site_fract_x
 _atom_site_fract_y
 _atom_site_fract_z
 _atom_site_occupancy
  Li  Li0  1  0.49997633  0.00001586  0.53548808  1
  Li  Li1  1  0.50001574  0.50000992  0.03547624  1
  Li  Li2  1  0.00002352  0.00001565  0.53547330  1
  Li  Li3  1  -0.00001636  0.50001037  0.03549696  1
  S  S4  1  0.74999333  0.50063728  0.81399862  1
  S  S5  1  0.75000765  0.00064632  0.31400440  1
  S  S6  1  0.24999311  -0.00066478  0.31401483  1
  S  S7  1  0.25000710  0.49931835  0.81400716  1
  N  N8  1  0.24999727  0.49939933  0.06325886  1
  N  N9  1  0.25000396  -0.00059008  0.56327006  1
  N  N10  1  0.74999586  0.00059807  0.56327601  1
  N  N11  1  0.75000227  0.50059255  0.06327474  1
  N  N12  1  0.49992331  0.38847582  0.44767406  1
  N  N13  1  0.49992773  0.88846975  0.94769098  1
  N  N14  1  0.50007766  0.11152677  0.94767924  1
  N  N15  1  0.50007230  0.61153299  0.44765829  1
  N  N16  1  0.00007702  0.38847562  0.44769280  1
  N  N17  1  0.00007206  0.88847017  0.94767519  1
  N  N18  1  0.99992238  0.11152729  0.94766326  1
  N  N19  1  0.99992775  0.61153276  0.44767721  1
