# generated using pymatgen
data_NaCI2
_symmetry_space_group_name_H-M   'P 1'
_cell_length_a   5.39061156
_cell_length_b   5.39036241
_cell_length_c   7.63468437
_cell_angle_alpha   89.98593625
_cell_angle_beta   89.99454895
_cell_angle_gamma   89.99988866
_symmetry_Int_Tables_number   1
_chemical_formula_structural   NaCI2
_chemical_formula_sum   'Na2 C2 I4'
_cell_volume   221.84368746
_cell_formula_units_Z   2
loop_
 _symmetry_equiv_pos_site_id
 _symmetry_equiv_pos_as_xyz
  1  'x, y, z'
loop_
 _atom_site_type_symbol
 _atom_site_label
 _atom_site_symmetry_multiplicity
 _atom_site_fract_x
 _atom_site_fract_y
 _atom_site_fract_z
 _atom_site_occupancy
  Na  Na0  1  0.00000000  -0.00000000  0.50000000  1
  Na  Na1  1  0.50000000  0.50000000  0.00000000  1
  C  C2  1  0.50000000  0.50000000  0.50000001  1
  C  C3  1  0.00000000  -0.00000001  -0.00000000  1
  I  I4  1  0.50001269  -0.00002893  0.25000352  1
  I  I5  1  0.00001003  0.49997039  0.75000284  1
  I  I6  1  0.49998731  0.00002894  0.74999648  1
  I  I7  1  -0.00001003  0.50002962  0.24999716  1
