# generated using pymatgen
data_Li6Br4Cl
_symmetry_space_group_name_H-M   'P 1'
_cell_length_a   10.47174131
_cell_length_b   6.51279048
_cell_length_c   7.24190636
_cell_angle_alpha   89.99995255
_cell_angle_beta   89.99981563
_cell_angle_gamma   89.97001356
_symmetry_Int_Tables_number   1
_chemical_formula_structural   Li6Br4Cl
_chemical_formula_sum   'Li12 Br8 Cl2'
_cell_volume   493.89980760
_cell_formula_units_Z   2
loop_
 _symmetry_equiv_pos_site_id
 _symmetry_equiv_pos_as_xyz
  1  'x, y, z'
loop_
 _atom_site_type_symbol
 _atom_site_label
 _atom_site_symmetry_multiplicity
 _atom_site_fract_x
 _atom_site_fract_y
 _atom_site_fract_z
 _atom_site_occupancy
  Li  Li0  1  -0.00014834  0.15880630  0.23765905  1
  Li  Li1  1  0.49965280  0.64265378  0.23871871  1
  Li  Li2  1  0.00034694  0.85734589  0.73871597  1
  Li  Li3  1  0.50014849  0.34119406  0.73766341  1
  Li  Li4  1  0.81742505  0.31091956  0.74074235  1
  Li  Li5  1  0.16650003  0.66945440  0.23460627  1
  Li  Li6  1  0.83256763  0.67079149  0.24016117  1
  Li  Li7  1  0.18413098  0.31054255  0.73617611  1
  Li  Li8  1  0.33349978  0.83054608  0.73459111  1
  Li  Li9  1  0.68257490  0.18908018  0.24074769  1
  Li  Li10  1  0.31586923  0.18945745  0.23616633  1
  Li  Li11  1  0.66743192  0.82920901  0.74015610  1
  Br  Br12  1  0.82987941  -0.00254176  -0.00870043  1
  Br  Br13  1  0.33032404  0.50132485  -0.01335158  1
  Br  Br14  1  0.16967529  -0.00132391  0.48663993  1
  Br  Br15  1  0.67012063  0.50254215  0.49130018  1
  Br  Br16  1  0.67118421  0.49995566  -0.00852645  1
  Br  Br17  1  0.32887290  0.50137051  0.48676418  1
  Br  Br18  1  0.17112815  -0.00137170  -0.01324462  1
  Br  Br19  1  0.82881623  0.00004382  0.49147275  1
  Cl  Cl20  1  0.00072429  0.50340038  0.74076822  1
  Cl  Cl21  1  0.49927544  -0.00340073  0.24077352  1
