# generated using pymatgen
data_LiPCl2
_symmetry_space_group_name_H-M   'P 1'
_cell_length_a   4.44913371
_cell_length_b   4.44913382
_cell_length_c   7.09366865
_cell_angle_alpha   90.00002046
_cell_angle_beta   90.00002206
_cell_angle_gamma   90.00000052
_symmetry_Int_Tables_number   1
_chemical_formula_structural   LiPCl2
_chemical_formula_sum   'Li2 P2 Cl4'
_cell_volume   140.41769016
_cell_formula_units_Z   2
loop_
 _symmetry_equiv_pos_site_id
 _symmetry_equiv_pos_as_xyz
  1  'x, y, z'
loop_
 _atom_site_type_symbol
 _atom_site_label
 _atom_site_symmetry_multiplicity
 _atom_site_fract_x
 _atom_site_fract_y
 _atom_site_fract_z
 _atom_site_occupancy
  Li  Li0  1  0.00000000  0.50000000  0.50000000  1
  Li  Li1  1  0.50000000  0.00000000  0.50000000  1
  P  P2  1  0.50000000  -0.00000001  0.00000000  1
  P  P3  1  -0.00000000  0.50000001  -0.00000000  1
  Cl  Cl4  1  0.00000004  0.00000004  0.71589627  1
  Cl  Cl5  1  -0.00000004  -0.00000004  0.28410373  1
  Cl  Cl6  1  0.49999996  0.49999996  0.28410373  1
  Cl  Cl7  1  0.50000004  0.50000004  0.71589627  1
