# generated using pymatgen
data_Li3Br3N2
_symmetry_space_group_name_H-M   'P 1'
_cell_length_a   4.61815845
_cell_length_b   7.29204618
_cell_length_c   11.05457687
_cell_angle_alpha   90.01030458
_cell_angle_beta   90.00896681
_cell_angle_gamma   90.00003531
_symmetry_Int_Tables_number   1
_chemical_formula_structural   Li3Br3N2
_chemical_formula_sum   'Li6 Br6 N4'
_cell_volume   372.27198157
_cell_formula_units_Z   2
loop_
 _symmetry_equiv_pos_site_id
 _symmetry_equiv_pos_as_xyz
  1  'x, y, z'
loop_
 _atom_site_type_symbol
 _atom_site_label
 _atom_site_symmetry_multiplicity
 _atom_site_fract_x
 _atom_site_fract_y
 _atom_site_fract_z
 _atom_site_occupancy
  Li  Li0  1  0.50002238  0.49990993  0.71032826  1
  Li  Li1  1  0.49998196  0.50006546  -0.06641220  1
  Li  Li2  1  -0.00001857  0.49996003  0.27499313  1
  Li  Li3  1  0.00024866  -0.00020962  0.21032118  1
  Li  Li4  1  -0.00017297  0.00004054  0.43358446  1
  Li  Li5  1  0.49998690  -0.00000432  0.77499081  1
  Br  Br6  1  0.00243058  0.74925823  0.74991854  1
  Br  Br7  1  0.00004645  0.50034379  0.04246614  1
  Br  Br8  1  -0.00243156  0.25069863  0.75011141  1
  Br  Br9  1  0.50244759  0.75057924  0.25016269  1
  Br  Br10  1  0.49984904  0.00029651  0.54246330  1
  Br  Br11  1  0.49754900  0.24915499  0.24985409  1
  N  N12  1  0.38443357  0.72571633  0.80118728  1
  N  N13  1  0.61556149  0.27427025  0.80131547  1
  N  N14  1  0.88448476  0.77423574  0.30136458  1
  N  N15  1  0.11558072  0.22568427  0.30114242  1
