# generated using pymatgen
data_K2BrN
_symmetry_space_group_name_H-M   'P 1'
_cell_length_a   5.34422436
_cell_length_b   5.31807156
_cell_length_c   7.81001922
_cell_angle_alpha   90.00450113
_cell_angle_beta   89.94888926
_cell_angle_gamma   90.08032704
_symmetry_Int_Tables_number   1
_chemical_formula_structural   K2BrN
_chemical_formula_sum   'K4 Br2 N2'
_cell_volume   221.96799597
_cell_formula_units_Z   2
loop_
 _symmetry_equiv_pos_site_id
 _symmetry_equiv_pos_as_xyz
  1  'x, y, z'
loop_
 _atom_site_type_symbol
 _atom_site_label
 _atom_site_symmetry_multiplicity
 _atom_site_fract_x
 _atom_site_fract_y
 _atom_site_fract_z
 _atom_site_occupancy
  K  K0  1  0.00003634  0.49999993  0.75077609  1
  K  K1  1  -0.00003634  0.50000006  0.24922391  1
  K  K2  1  0.50000556  -0.00000080  0.24601146  1
  K  K3  1  0.49999444  0.00000080  0.75398854  1
  Br  Br4  1  -0.00000000  0.00000000  0.00000000  1
  Br  Br5  1  -0.00000000  0.00000000  0.50000000  1
  N  N6  1  0.50000000  0.50000000  0.50000000  1
  N  N7  1  0.50000000  0.50000000  -0.00000000  1
