# generated using pymatgen
data_NaSi5P2
_symmetry_space_group_name_H-M   'P 1'
_cell_length_a   6.20408018
_cell_length_b   6.21114485
_cell_length_c   6.72476388
_cell_angle_alpha   90.00000023
_cell_angle_beta   90.00000102
_cell_angle_gamma   89.99999651
_symmetry_Int_Tables_number   1
_chemical_formula_structural   NaSi5P2
_chemical_formula_sum   'Na2 Si10 P4'
_cell_volume   259.13501472
_cell_formula_units_Z   2
loop_
 _symmetry_equiv_pos_site_id
 _symmetry_equiv_pos_as_xyz
  1  'x, y, z'
loop_
 _atom_site_type_symbol
 _atom_site_label
 _atom_site_symmetry_multiplicity
 _atom_site_fract_x
 _atom_site_fract_y
 _atom_site_fract_z
 _atom_site_occupancy
  Na  Na0  1  -0.00000000  0.00000000  -0.00000000  1
  Na  Na1  1  0.50000000  0.50000000  -0.00000000  1
  Si  Si2  1  0.24999999  0.75000001  0.30094041  1
  Si  Si3  1  0.75000001  0.25000000  0.69905958  1
  Si  Si4  1  0.24999999  0.24999999  0.30094041  1
  Si  Si5  1  0.50000000  0.50000000  0.50000000  1
  Si  Si6  1  0.75000001  0.75000001  0.69905959  1
  Si  Si7  1  0.75000002  0.25000001  0.30094042  1
  Si  Si8  1  0.24999999  0.74999999  0.69905958  1
  Si  Si9  1  0.24999998  0.25000002  0.69905959  1
  Si  Si10  1  0.00000000  -0.00000000  0.50000000  1
  Si  Si11  1  0.75000001  0.74999999  0.30094041  1
  P  P12  1  0.00000000  0.50000000  0.50000000  1
  P  P13  1  0.50000000  -0.00000000  0.50000000  1
  P  P14  1  0.00000001  0.50000000  -0.00000000  1
  P  P15  1  0.50000000  -0.00000001  0.00000001  1
