# generated using pymatgen
data_KI6Br
_symmetry_space_group_name_H-M   'P 1'
_cell_length_a   9.16904098
_cell_length_b   9.16736710
_cell_length_c   5.88044328
_cell_angle_alpha   89.99954697
_cell_angle_beta   89.99923830
_cell_angle_gamma   119.99989203
_symmetry_Int_Tables_number   1
_chemical_formula_structural   KI6Br
_chemical_formula_sum   'K1 I6 Br1'
_cell_volume   428.06498548
_cell_formula_units_Z   1
loop_
 _symmetry_equiv_pos_site_id
 _symmetry_equiv_pos_as_xyz
  1  'x, y, z'
loop_
 _atom_site_type_symbol
 _atom_site_label
 _atom_site_symmetry_multiplicity
 _atom_site_fract_x
 _atom_site_fract_y
 _atom_site_fract_z
 _atom_site_occupancy
  K  K0  1  -0.00000000  -0.00000000  0.50000000  1
  I  I1  1  0.48758933  0.51235321  0.24974989  1
  I  I2  1  0.51241067  0.48764679  0.75025011  1
  I  I3  1  0.02476273  0.51236937  0.24974884  1
  I  I4  1  0.97523727  0.48763063  0.75025116  1
  I  I5  1  0.51239825  0.02476320  0.75024996  1
  I  I6  1  0.48760175  0.97523680  0.24975004  1
  Br  Br7  1  0.00000000  0.00000000  -0.00000000  1
