# generated using pymatgen
data_Li2IN
_symmetry_space_group_name_H-M   'P 1'
_cell_length_a   4.23897556
_cell_length_b   3.98360345
_cell_length_c   8.47753081
_cell_angle_alpha   88.77434345
_cell_angle_beta   94.94532567
_cell_angle_gamma   89.67318009
_symmetry_Int_Tables_number   1
_chemical_formula_structural   Li2IN
_chemical_formula_sum   'Li4 I2 N2'
_cell_volume   142.58532416
_cell_formula_units_Z   2
loop_
 _symmetry_equiv_pos_site_id
 _symmetry_equiv_pos_as_xyz
  1  'x, y, z'
loop_
 _atom_site_type_symbol
 _atom_site_label
 _atom_site_symmetry_multiplicity
 _atom_site_fract_x
 _atom_site_fract_y
 _atom_site_fract_z
 _atom_site_occupancy
  Li  Li0  1  -0.31003223  0.58275015  -0.11772418  1
  Li  Li1  1  0.25197307  -0.44385069  0.21971206  1
  Li  Li2  1  0.48273675  0.04221605  0.44864236  1
  Li  Li3  1  0.20395464  0.08271238  0.86480957  1
  I  I4  1  0.75593045  0.06216493  0.13038045  1
  I  I5  1  0.03341597  0.54717921  0.59101341  1
  N  N6  1  0.37394833  0.54227633  0.44242209  1
  N  N7  1  0.20807302  0.58455164  0.82654315  1
