# generated using pymatgen
data_Na2IO
_symmetry_space_group_name_H-M   'P 1'
_cell_length_a   10.76722549
_cell_length_b   10.03147940
_cell_length_c   8.45884737
_cell_angle_alpha   113.26879405
_cell_angle_beta   91.72860443
_cell_angle_gamma   129.04231327
_symmetry_Int_Tables_number   1
_chemical_formula_structural   Na2IO
_chemical_formula_sum   'Na12 I6 O6'
_cell_volume   599.99090055
_cell_formula_units_Z   6
loop_
 _symmetry_equiv_pos_site_id
 _symmetry_equiv_pos_as_xyz
  1  'x, y, z'
loop_
 _atom_site_type_symbol
 _atom_site_label
 _atom_site_symmetry_multiplicity
 _atom_site_fract_x
 _atom_site_fract_y
 _atom_site_fract_z
 _atom_site_occupancy
  Na  Na0  1  -0.20002820  0.60405508  0.58100612  1
  Na  Na1  1  0.88777815  0.27529451  0.53200286  1
  Na  Na2  1  0.98237525  0.43096089  0.94080379  1
  Na  Na3  1  0.36261487  0.64890515  0.64315898  1
  Na  Na4  1  0.66003899  0.78740208  0.27066971  1
  Na  Na5  1  0.19247726  0.10265942  0.24757358  1
  Na  Na6  1  0.49629262  0.07923916  0.35234655  1
  Na  Na7  1  0.76167888  0.08418169  0.07738326  1
  Na  Na8  1  0.75835094  0.56001210  0.95652216  1
  Na  Na9  1  0.19169703  0.15436196  0.80841983  1
  Na  Na10  1  0.46295689  0.31412493  0.12252696  1
  Na  Na11  1  0.39092113  0.65678520  0.02048877  1
  I  I12  1  0.57417779  0.12540230  -0.15403413  1
  I  I13  1  0.16277215  0.77043621  0.85802597  1
  I  I14  1  0.47256756  0.40875739  0.67453978  1
  I  I15  1  0.80867801  0.95053281  0.67989702  1
  I  I16  1  0.16744041  0.41046939  0.23152439  1
  I  I17  1  0.01227153  0.75768056  0.33256030  1
  O  O18  1  0.17083963  0.54536817  0.78767653  1
  O  O19  1  0.91052052  0.54641480  0.76996833  1
  O  O20  1  0.49046175  0.32312135  0.40061083  1
  O  O21  1  0.64200095  -0.00676506  0.26249664  1
  O  O22  1  0.15224535  -0.01833260  -0.05840069  1
  O  O23  1  0.48887053  0.48893252  -0.02485585  1
