# generated using pymatgen
data_KP2I3
_symmetry_space_group_name_H-M   'P 1'
_cell_length_a   6.20685133
_cell_length_b   6.20678613
_cell_length_c   8.48400116
_cell_angle_alpha   90.00002813
_cell_angle_beta   89.99999661
_cell_angle_gamma   119.99563669
_symmetry_Int_Tables_number   1
_chemical_formula_structural   KP2I3
_chemical_formula_sum   'K1 P2 I3'
_cell_volume   283.06656073
_cell_formula_units_Z   1
loop_
 _symmetry_equiv_pos_site_id
 _symmetry_equiv_pos_as_xyz
  1  'x, y, z'
loop_
 _atom_site_type_symbol
 _atom_site_label
 _atom_site_symmetry_multiplicity
 _atom_site_fract_x
 _atom_site_fract_y
 _atom_site_fract_z
 _atom_site_occupancy
  K  K0  1  -0.00000013  -0.00000013  0.32220210  1
  P  P1  1  0.33336419  0.66664760  0.32746837  1
  P  P2  1  0.66663581  0.33335240  0.32746697  1
  I  I3  1  0.49999995  0.50000002  0.84132471  1
  I  I4  1  0.00000020  0.50000008  0.84132525  1
  I  I5  1  0.49999999  0.00000003  0.84132521  1
