# generated using pymatgen
data_Li2I11O15
_symmetry_space_group_name_H-M   'P 1'
_cell_length_a   9.74297896
_cell_length_b   8.38417867
_cell_length_c   8.35305638
_cell_angle_alpha   104.46161374
_cell_angle_beta   89.55815781
_cell_angle_gamma   89.17160931
_symmetry_Int_Tables_number   1
_chemical_formula_structural   Li2I11O15
_chemical_formula_sum   'Li2 I11 O15'
_cell_volume   660.60118523
_cell_formula_units_Z   1
loop_
 _symmetry_equiv_pos_site_id
 _symmetry_equiv_pos_as_xyz
  1  'x, y, z'
loop_
 _atom_site_type_symbol
 _atom_site_label
 _atom_site_symmetry_multiplicity
 _atom_site_fract_x
 _atom_site_fract_y
 _atom_site_fract_z
 _atom_site_occupancy
  Li  Li0  1  0.54206425  0.62478196  0.85709082  1
  Li  Li1  1  -0.16180050  -0.10601282  -0.11605902  1
  I  I2  1  0.50116640  -0.00020638  0.00486908  1
  I  I3  1  0.00627640  0.03755514  0.57892099  1
  I  I4  1  -0.02827726  0.54730012  -0.02308663  1
  I  I5  1  0.75260236  0.58205413  0.51936304  1
  I  I6  1  0.19460290  0.33282501  0.27297827  1
  I  I7  1  0.66186002  0.20904428  0.37737041  1
  I  I8  1  0.70201531  0.76591258  0.23615275  1
  I  I9  1  0.24167234  0.77521932  0.30351250  1
  I  I10  1  0.67923752  0.22424061  0.75469573  1
  I  I11  1  0.34100283  0.77067992  0.63242401  1
  I  I12  1  0.30813927  0.29682698  0.78254265  1
  O  O13  1  0.17405510  0.37772796  0.49933236  1
  O  O14  1  0.48348820  0.40517540  -0.20494306  1
  O  O15  1  0.59699319  -0.02618410  0.35726247  1
  O  O16  1  0.65318861  0.82926983  0.01154979  1
  O  O17  1  -0.04393752  0.71197174  0.86573448  1
  O  O18  1  0.83477430  0.04702847  0.73529178  1
  O  O19  1  0.33938492  0.20549958  -0.03855389  1
  O  O20  1  0.02440063  0.36757736  0.19023402  1
  O  O21  1  0.16874651  0.00252419  0.38783195  1
  O  O22  1  0.64944537  0.17773193  0.13523425  1
  O  O23  1  0.86531783  -0.13449950  0.26920129  1
  O  O24  1  -0.22102130  0.56411771  0.06654486  1
  O  O25  1  0.21649848  0.48143001  0.89853829  1
  O  O26  1  0.39879605  0.79457583  -0.11446217  1
  O  O27  1  0.11930779  0.13583276  0.76042900  1
