# generated using pymatgen
data_LiNCl4
_symmetry_space_group_name_H-M   'P 1'
_cell_length_a   10.50187750
_cell_length_b   9.68178101
_cell_length_c   6.33646127
_cell_angle_alpha   89.99025042
_cell_angle_beta   89.99381456
_cell_angle_gamma   90.02892235
_symmetry_Int_Tables_number   1
_chemical_formula_structural   LiNCl4
_chemical_formula_sum   'Li4 N4 Cl16'
_cell_volume   644.27150537
_cell_formula_units_Z   4
loop_
 _symmetry_equiv_pos_site_id
 _symmetry_equiv_pos_as_xyz
  1  'x, y, z'
loop_
 _atom_site_type_symbol
 _atom_site_label
 _atom_site_symmetry_multiplicity
 _atom_site_fract_x
 _atom_site_fract_y
 _atom_site_fract_z
 _atom_site_occupancy
  Li  Li0  1  -0.00037129  0.60252415  0.25040384  1
  Li  Li1  1  0.49948496  0.39750505  0.25042817  1
  Li  Li2  1  0.00036217  0.39754804  0.75051129  1
  Li  Li3  1  0.50055964  0.60241483  0.75039471  1
  N  N4  1  0.59830258  0.28630898  0.48101274  1
  N  N5  1  0.09869729  0.71383735  0.48073768  1
  N  N6  1  0.40185673  0.71362061  -0.01901529  1
  N  N7  1  0.90146464  0.28623592  -0.01888357  1
  Cl  Cl8  1  0.28712024  0.34926316  0.01248482  1
  Cl  Cl9  1  -0.13454873  0.46568864  0.46805528  1
  Cl  Cl10  1  0.71274439  0.65086318  0.51234361  1
  Cl  Cl11  1  0.13459399  0.53445843  -0.03203391  1
  Cl  Cl12  1  0.78734118  0.65066134  0.01232504  1
  Cl  Cl13  1  0.36546700  0.53435999  0.46802967  1
  Cl  Cl14  1  0.21258053  0.34918446  0.51246938  1
  Cl  Cl15  1  0.63455445  0.46548019  -0.03198570  1
  Cl  Cl16  1  0.42677342  0.18333101  0.06252724  1
  Cl  Cl17  1  0.14032135  0.85538773  0.58356684  1
  Cl  Cl18  1  0.92714998  0.81663952  0.06228240  1
  Cl  Cl19  1  0.63998516  0.14482434  0.58384212  1
  Cl  Cl20  1  0.57299505  0.81663271  0.56224295  1
  Cl  Cl21  1  0.85976681  0.14469168  0.08382272  1
  Cl  Cl22  1  0.07267844  0.18335470  0.56250329  1
  Cl  Cl23  1  0.36012004  0.85518398  0.08342488  1
