# generated using pymatgen
data_Li2BrN
_symmetry_space_group_name_H-M   'P 1'
_cell_length_a   6.80150009
_cell_length_b   6.88423297
_cell_length_c   4.79954296
_cell_angle_alpha   89.99936146
_cell_angle_beta   89.99925075
_cell_angle_gamma   90.00174317
_symmetry_Int_Tables_number   1
_chemical_formula_structural   Li2BrN
_chemical_formula_sum   'Li8 Br4 N4'
_cell_volume   224.72953354
_cell_formula_units_Z   4
loop_
 _symmetry_equiv_pos_site_id
 _symmetry_equiv_pos_as_xyz
  1  'x, y, z'
loop_
 _atom_site_type_symbol
 _atom_site_label
 _atom_site_symmetry_multiplicity
 _atom_site_fract_x
 _atom_site_fract_y
 _atom_site_fract_z
 _atom_site_occupancy
  Li  Li0  1  0.79667019  0.32556233  0.15571146  1
  Li  Li1  1  0.20333014  0.67443795  0.84428859  1
  Li  Li2  1  0.29667874  0.17445086  0.84428541  1
  Li  Li3  1  0.70332129  0.82554888  0.15571455  1
  Li  Li4  1  0.29666398  0.32555585  0.34428266  1
  Li  Li5  1  0.70333588  0.67444416  0.65571746  1
  Li  Li6  1  0.20332494  0.82555419  0.34427539  1
  Li  Li7  1  0.79667496  0.17444587  0.65572438  1
  Br  Br8  1  0.50000003  -0.00000004  0.49999989  1
  Br  Br9  1  0.00000003  0.50000009  0.50000019  1
  Br  Br10  1  -0.00000013  0.00000015  0.00000003  1
  Br  Br11  1  0.50000001  0.49999976  -0.00000005  1
  N  N12  1  0.00000003  0.50000027  0.00000009  1
  N  N13  1  0.49999979  -0.00000038  -0.00000005  1
  N  N14  1  0.50000005  0.49999992  0.49999998  1
  N  N15  1  0.00000008  0.00000014  0.50000001  1
