# generated using pymatgen
data_Li9(SI4)2
_symmetry_space_group_name_H-M   'P 1'
_cell_length_a   12.50479237
_cell_length_b   12.50141637
_cell_length_c   8.28976643
_cell_angle_alpha   90.00076555
_cell_angle_beta   90.00364445
_cell_angle_gamma   90.64585559
_symmetry_Int_Tables_number   1
_chemical_formula_structural   Li9(SI4)2
_chemical_formula_sum   'Li18 S4 I16'
_cell_volume   1295.83708882
_cell_formula_units_Z   2
loop_
 _symmetry_equiv_pos_site_id
 _symmetry_equiv_pos_as_xyz
  1  'x, y, z'
loop_
 _atom_site_type_symbol
 _atom_site_label
 _atom_site_symmetry_multiplicity
 _atom_site_fract_x
 _atom_site_fract_y
 _atom_site_fract_z
 _atom_site_occupancy
  Li  Li0  1  0.83553870  0.02120008  0.15041739  1
  Li  Li1  1  0.16448416  -0.02117768  0.15050034  1
  Li  Li2  1  0.62692069  0.00083629  0.68380631  1
  Li  Li3  1  0.37308092  -0.00089163  0.68377578  1
  Li  Li4  1  0.52111144  0.33559790  0.65060153  1
  Li  Li5  1  0.47892587  0.66442062  0.65066998  1
  Li  Li6  1  0.50011762  0.12677268  0.18408690  1
  Li  Li7  1  0.49986525  0.87323273  0.18406946  1
  Li  Li8  1  0.00000948  -0.00002957  0.54306910  1
  Li  Li9  1  0.49998571  0.50003601  0.04347916  1
  Li  Li10  1  0.69108459  0.49369534  0.35984285  1
  Li  Li11  1  0.30900270  0.50608004  0.35994943  1
  Li  Li12  1  0.83828490  0.51673127  0.79919115  1
  Li  Li13  1  0.16160490  0.48327022  0.79919152  1
  Li  Li14  1  -0.00614640  0.19111472  0.85972082  1
  Li  Li15  1  0.00588727  0.80900559  0.85987948  1
  Li  Li16  1  0.01692659  0.33826894  0.29910887  1
  Li  Li17  1  -0.01697699  0.66170214  0.29917153  1
  S  S18  1  0.00000180  -0.00006990  0.27097347  1
  S  S19  1  0.49996729  0.50000005  0.77148344  1
  S  S20  1  0.50007208  0.50014143  0.32317330  1
  S  S21  1  0.00019265  0.00009364  0.82275126  1
  I  I22  1  0.79584242  0.92333725  -0.14639148  1
  I  I23  1  0.20426400  0.07673779  -0.14626799  1
  I  I24  1  0.42293158  0.29584971  0.35407910  1
  I  I25  1  0.57713285  0.70422164  0.35419280  1
  I  I26  1  0.34367104  0.98937264  0.34529060  1
  I  I27  1  0.65633298  0.01055959  0.34524825  1
  I  I28  1  0.93832258  0.67035224  0.62041343  1
  I  I29  1  0.06179957  0.32954089  0.62029183  1
  I  I30  1  0.48974970  0.84364009  0.84546332  1
  I  I31  1  0.51016837  0.15633852  0.84540267  1
  I  I32  1  0.17045691  0.43831790  0.12034482  1
  I  I33  1  0.82944962  0.56177772  0.12030432  1
  I  I34  1  0.73683257  0.37043881  0.61824125  1
  I  I35  1  0.26324487  0.62942448  0.61826811  1
  I  I36  1  0.87068773  0.23691692  0.11807278  1
  I  I37  1  0.12917198  0.76314288  0.11813312  1
