# generated using pymatgen
data_Na3ICl2
_symmetry_space_group_name_H-M   'P 1'
_cell_length_a   9.14709434
_cell_length_b   9.14712279
_cell_length_c   9.29296661
_cell_angle_alpha   90.00103539
_cell_angle_beta   90.00102072
_cell_angle_gamma   90.00001336
_symmetry_Int_Tables_number   1
_chemical_formula_structural   Na3ICl2
_chemical_formula_sum   'Na12 I4 Cl8'
_cell_volume   777.53875327
_cell_formula_units_Z   4
loop_
 _symmetry_equiv_pos_site_id
 _symmetry_equiv_pos_as_xyz
  1  'x, y, z'
loop_
 _atom_site_type_symbol
 _atom_site_label
 _atom_site_symmetry_multiplicity
 _atom_site_fract_x
 _atom_site_fract_y
 _atom_site_fract_z
 _atom_site_occupancy
  Na  Na0  1  0.50001245  0.50000847  0.50000005  1
  Na  Na1  1  0.49999161  0.49998753  -0.00000009  1
  Na  Na2  1  0.18303801  0.81696326  0.24999995  1
  Na  Na3  1  0.68302768  0.68304973  0.25001118  1
  Na  Na4  1  0.31694972  0.31697301  0.24998872  1
  Na  Na5  1  0.81695892  0.18303961  0.25000001  1
  Na  Na6  1  0.00000860  0.00001248  0.00000008  1
  Na  Na7  1  -0.00001252  -0.00000847  0.49999991  1
  Na  Na8  1  0.31696266  0.68303722  0.75000003  1
  Na  Na9  1  0.18305076  0.18302730  0.75001117  1
  Na  Na10  1  0.81697226  0.81694990  0.74998876  1
  Na  Na11  1  0.68303989  0.31696021  0.74999989  1
  I  I12  1  -0.00003157  0.50002475  0.50005100  1
  I  I13  1  0.49997498  0.00003163  -0.00005084  1
  I  I14  1  0.00002460  0.49996848  0.00005099  1
  I  I15  1  0.50003175  -0.00002459  0.49994908  1
  Cl  Cl16  1  0.87977784  0.12022224  0.75000011  1
  Cl  Cl17  1  0.62022260  0.37977721  0.25000003  1
  Cl  Cl18  1  0.37977278  0.62022741  0.24999998  1
  Cl  Cl19  1  0.12022713  0.87977280  0.74999990  1
  Cl  Cl20  1  0.62022400  0.62022666  0.75002563  1
  Cl  Cl21  1  0.37977338  0.37977580  0.74997441  1
  Cl  Cl22  1  0.12022626  0.12022396  0.25002577  1
  Cl  Cl23  1  0.87977620  0.87977341  0.24997429  1
