# generated using pymatgen
data_K2BrO
_symmetry_space_group_name_H-M   'P 1'
_cell_length_a   7.77842855
_cell_length_b   7.59411003
_cell_length_c   7.82648197
_cell_angle_alpha   89.99997073
_cell_angle_beta   89.99999898
_cell_angle_gamma   89.99999991
_symmetry_Int_Tables_number   1
_chemical_formula_structural   K2BrO
_chemical_formula_sum   'K8 Br4 O4'
_cell_volume   462.31218610
_cell_formula_units_Z   4
loop_
 _symmetry_equiv_pos_site_id
 _symmetry_equiv_pos_as_xyz
  1  'x, y, z'
loop_
 _atom_site_type_symbol
 _atom_site_label
 _atom_site_symmetry_multiplicity
 _atom_site_fract_x
 _atom_site_fract_y
 _atom_site_fract_z
 _atom_site_occupancy
  K  K0  1  0.74997623  0.25020426  0.17904302  1
  K  K1  1  0.25002299  0.74979502  0.67903737  1
  K  K2  1  0.74997701  0.74979510  0.67903738  1
  K  K3  1  0.25002370  0.25020424  0.17904301  1
  K  K4  1  0.24997616  0.75020460  0.17904176  1
  K  K5  1  0.75002265  0.24979504  0.67903335  1
  K  K6  1  0.24997739  0.24979507  0.67903328  1
  K  K7  1  0.75002372  0.75020463  0.17904166  1
  Br  Br8  1  0.00000000  0.49999433  0.42879306  1
  Br  Br9  1  0.00000003  0.50000545  0.92879545  1
  Br  Br10  1  0.50000003  -0.00000924  0.42879271  1
  Br  Br11  1  0.50000001  0.00000856  0.92879515  1
  O  O12  1  -0.00000001  0.00000301  0.17993481  1
  O  O13  1  0.00000005  -0.00000209  0.67992091  1
  O  O14  1  0.49999997  0.50000325  0.17993640  1
  O  O15  1  0.50000008  0.49999878  0.67992219  1
