# generated using pymatgen
data_Li5Br2N
_symmetry_space_group_name_H-M   'P 1'
_cell_length_a   8.32662256
_cell_length_b   8.32662279
_cell_length_c   8.09211255
_cell_angle_alpha   89.99991786
_cell_angle_beta   89.99991809
_cell_angle_gamma   89.99973353
_symmetry_Int_Tables_number   1
_chemical_formula_structural   Li5Br2N
_chemical_formula_sum   'Li20 Br8 N4'
_cell_volume   561.04756856
_cell_formula_units_Z   4
loop_
 _symmetry_equiv_pos_site_id
 _symmetry_equiv_pos_as_xyz
  1  'x, y, z'
loop_
 _atom_site_type_symbol
 _atom_site_label
 _atom_site_symmetry_multiplicity
 _atom_site_fract_x
 _atom_site_fract_y
 _atom_site_fract_z
 _atom_site_occupancy
  Li  Li0  1  0.50000035  0.49999976  0.88155618  1
  Li  Li1  1  -0.00000016  0.00000033  0.88155617  1
  Li  Li2  1  0.22298313  0.50003232  0.13459716  1
  Li  Li3  1  0.00003228  0.72298312  0.13459727  1
  Li  Li4  1  0.50003159  0.77701823  0.13459467  1
  Li  Li5  1  0.27701815  0.00003154  0.13459472  1
  Li  Li6  1  0.49996839  0.22298144  0.13459854  1
  Li  Li7  1  0.72298135  -0.00003154  0.13459840  1
  Li  Li8  1  0.77701636  0.49996767  0.13459516  1
  Li  Li9  1  -0.00003229  0.27701636  0.13459511  1
  Li  Li10  1  0.00000024  -0.00000023  0.38155669  1
  Li  Li11  1  0.49999973  0.50000031  0.38155669  1
  Li  Li12  1  0.50003224  0.22297742  0.63459842  1
  Li  Li13  1  0.72297742  0.00003222  0.63459847  1
  Li  Li14  1  0.77700770  0.50003158  0.63459364  1
  Li  Li15  1  0.00003158  0.27700764  0.63459371  1
  Li  Li16  1  0.22299205  0.49996842  0.63459757  1
  Li  Li17  1  -0.00003157  0.72299203  0.63459756  1
  Li  Li18  1  0.49996772  0.77702203  0.63459627  1
  Li  Li19  1  0.27702204  -0.00003226  0.63459608  1
  Br  Br20  1  0.24976867  0.74976862  0.87762842  1
  Br  Br21  1  0.74976904  0.24976905  0.37762848  1
  Br  Br22  1  0.25023095  0.75023097  0.37762758  1
  Br  Br23  1  0.75023141  0.25023137  0.87762752  1
  Br  Br24  1  0.75023167  0.74976840  0.37762810  1
  Br  Br25  1  0.24976838  0.25023168  0.37762811  1
  Br  Br26  1  0.25023133  0.24976875  0.87762810  1
  Br  Br27  1  0.74976878  0.75023132  0.87762811  1
  N  N28  1  0.00000023  0.50000026  0.12828017  1
  N  N29  1  0.50000059  0.00000045  0.12828148  1
  N  N30  1  0.50000025  0.00000026  0.62828111  1
  N  N31  1  0.00000038  0.50000045  0.62827961  1
