# generated using pymatgen
data_LiCCl4
_symmetry_space_group_name_H-M   'P 1'
_cell_length_a   6.53782833
_cell_length_b   6.07263199
_cell_length_c   7.89563622
_cell_angle_alpha   91.22508382
_cell_angle_beta   90.28494330
_cell_angle_gamma   87.86614814
_symmetry_Int_Tables_number   1
_chemical_formula_structural   LiCCl4
_chemical_formula_sum   'Li2 C2 Cl8'
_cell_volume   313.17945971
_cell_formula_units_Z   2
loop_
 _symmetry_equiv_pos_site_id
 _symmetry_equiv_pos_as_xyz
  1  'x, y, z'
loop_
 _atom_site_type_symbol
 _atom_site_label
 _atom_site_symmetry_multiplicity
 _atom_site_fract_x
 _atom_site_fract_y
 _atom_site_fract_z
 _atom_site_occupancy
  Li  Li0  1  0.39071702  0.16413708  0.67113993  1
  Li  Li1  1  -0.11011981  0.33978892  -0.17829767  1
  C  C2  1  0.71419935  0.64310354  0.13347798  1
  C  C3  1  0.33152065  0.85745696  0.36759693  1
  Cl  Cl4  1  0.22353203  0.36554995  0.86891172  1
  Cl  Cl5  1  0.70303479  0.79537206  0.30583029  1
  Cl  Cl6  1  0.73071698  0.76009345  0.93917225  1
  Cl  Cl7  1  0.25792055  0.13747629  0.36038489  1
  Cl  Cl8  1  0.27959154  0.74209495  0.56323275  1
  Cl  Cl9  1  0.26070850  0.70414328  0.19419530  1
  Cl  Cl10  1  0.73718985  0.36246272  0.14187420  1
  Cl  Cl11  1  0.73098855  0.12832081  0.63248142  1
