# generated using pymatgen
data_LiP3Br4
_symmetry_space_group_name_H-M   'P 1'
_cell_length_a   10.67299643
_cell_length_b   10.66282745
_cell_length_c   6.92195532
_cell_angle_alpha   90.00396918
_cell_angle_beta   89.99527075
_cell_angle_gamma   89.99841923
_symmetry_Int_Tables_number   1
_chemical_formula_structural   LiP3Br4
_chemical_formula_sum   'Li4 P12 Br16'
_cell_volume   787.74840883
_cell_formula_units_Z   4
loop_
 _symmetry_equiv_pos_site_id
 _symmetry_equiv_pos_as_xyz
  1  'x, y, z'
loop_
 _atom_site_type_symbol
 _atom_site_label
 _atom_site_symmetry_multiplicity
 _atom_site_fract_x
 _atom_site_fract_y
 _atom_site_fract_z
 _atom_site_occupancy
  Li  Li0  1  0.49999836  -0.00000031  -0.00000870  1
  Li  Li1  1  0.00000283  0.00000304  0.50000237  1
  Li  Li2  1  0.49999553  0.49999701  0.50000228  1
  Li  Li3  1  0.00000827  0.50000057  -0.00000173  1
  P  P4  1  -0.00003583  -0.00007059  -0.00014630  1
  P  P5  1  0.50008271  0.50008045  -0.00014604  1
  P  P6  1  0.25011016  0.24989755  0.15506665  1
  P  P7  1  0.74988770  0.75012151  0.15504883  1
  P  P8  1  0.74988589  0.24986940  0.84512889  1
  P  P9  1  0.25012396  0.75010889  0.84515522  1
  P  P10  1  0.50003141  -0.00007540  0.50010360  1
  P  P11  1  -0.00007750  0.50006554  0.50023266  1
  P  P12  1  0.24989513  0.25011214  0.84494282  1
  P  P13  1  0.75011228  0.74989338  0.84495978  1
  P  P14  1  0.75010681  0.25011420  0.15487984  1
  P  P15  1  0.24987749  0.74988356  0.15485419  1
  Br  Br16  1  0.49986013  0.75405318  0.23917313  1
  Br  Br17  1  0.25402025  0.99986638  0.23910675  1
  Br  Br18  1  0.49974500  0.24595012  0.76085128  1
  Br  Br19  1  0.74596949  0.99972903  0.76089410  1
  Br  Br20  1  0.50014535  0.24596971  0.23912418  1
  Br  Br21  1  0.74596993  0.00015871  0.23912140  1
  Br  Br22  1  0.25402966  0.00027468  0.76089047  1
  Br  Br23  1  0.50028516  0.75404335  0.76086409  1
  Br  Br24  1  0.00013760  0.74593727  0.76081156  1
  Br  Br25  1  0.24599172  0.50013193  0.76089468  1
  Br  Br26  1  0.00025491  0.25405483  0.23914849  1
  Br  Br27  1  0.75401393  0.50027207  0.23910068  1
  Br  Br28  1  0.99985441  0.25403111  0.76086560  1
  Br  Br29  1  0.75402477  0.49984211  0.76085907  1
  Br  Br30  1  0.99971168  0.74596078  0.23912416  1
  Br  Br31  1  0.24598081  0.49972380  0.23909599  1
