# generated using pymatgen
data_Li2BrO
_symmetry_space_group_name_H-M   'P 1'
_cell_length_a   4.51658235
_cell_length_b   4.51658371
_cell_length_c   5.18606614
_cell_angle_alpha   90.00026513
_cell_angle_beta   90.00023479
_cell_angle_gamma   90.00000399
_symmetry_Int_Tables_number   1
_chemical_formula_structural   Li2BrO
_chemical_formula_sum   'Li4 Br2 O2'
_cell_volume   105.79327149
_cell_formula_units_Z   2
loop_
 _symmetry_equiv_pos_site_id
 _symmetry_equiv_pos_as_xyz
  1  'x, y, z'
loop_
 _atom_site_type_symbol
 _atom_site_label
 _atom_site_symmetry_multiplicity
 _atom_site_fract_x
 _atom_site_fract_y
 _atom_site_fract_z
 _atom_site_occupancy
  Li  Li0  1  0.49999930  0.00000088  0.75137048  1
  Li  Li1  1  -0.00000074  0.50000080  0.24862972  1
  Li  Li2  1  0.50000081  -0.00000080  0.25137031  1
  Li  Li3  1  0.00000071  0.49999914  0.74862974  1
  Br  Br4  1  0.49999996  0.50000003  0.49999994  1
  Br  Br5  1  0.00000002  -0.00000004  0.00000001  1
  O  O6  1  0.50000001  0.49999995  -0.00000014  1
  O  O7  1  -0.00000006  0.00000003  0.49999994  1
