# generated using pymatgen
data_NaCCl3
_symmetry_space_group_name_H-M   'P 1'
_cell_length_a   9.76903267
_cell_length_b   8.79360792
_cell_length_c   11.57610450
_cell_angle_alpha   89.99994804
_cell_angle_beta   90.00066998
_cell_angle_gamma   89.99999443
_symmetry_Int_Tables_number   1
_chemical_formula_structural   NaCCl3
_chemical_formula_sum   'Na8 C8 Cl24'
_cell_volume   994.44575528
_cell_formula_units_Z   8
loop_
 _symmetry_equiv_pos_site_id
 _symmetry_equiv_pos_as_xyz
  1  'x, y, z'
loop_
 _atom_site_type_symbol
 _atom_site_label
 _atom_site_symmetry_multiplicity
 _atom_site_fract_x
 _atom_site_fract_y
 _atom_site_fract_z
 _atom_site_occupancy
  Na  Na0  1  0.49999303  0.50000002  0.73095899  1
  Na  Na1  1  -0.00000936  0.00000796  0.23096100  1
  Na  Na2  1  0.50000528  0.49999582  0.23095830  1
  Na  Na3  1  0.00000965  0.00000504  0.73096061  1
  Na  Na4  1  0.49999072  -0.00000255  0.47357087  1
  Na  Na5  1  0.00004641  0.50004235  0.47357038  1
  Na  Na6  1  -0.00004368  0.50003932  0.97359002  1
  Na  Na7  1  0.50001683  0.00000879  0.97359018  1
  C  C8  1  0.79908580  0.79076906  -0.02575465  1
  C  C9  1  0.20097718  0.20923887  -0.02580424  1
  C  C10  1  0.29903313  0.70922127  -0.02575533  1
  C  C11  1  0.70092359  0.29075246  -0.02580201  1
  C  C12  1  0.29907447  0.29075041  0.47419214  1
  C  C13  1  0.70095796  0.70922180  0.47424377  1
  C  C14  1  0.79902733  0.20923822  0.47419271  1
  C  C15  1  0.20090976  0.79076718  0.47424264  1
  Cl  Cl16  1  0.75019677  0.91280513  0.10359230  1
  Cl  Cl17  1  0.74748327  0.08863999  0.34408234  1
  Cl  Cl18  1  0.24981752  0.08714994  0.10356044  1
  Cl  Cl19  1  0.25242612  0.91130670  0.34404900  1
  Cl  Cl20  1  0.49169151  0.30859078  0.47259703  1
  Cl  Cl21  1  0.50830489  0.69136537  0.47256440  1
  Cl  Cl22  1  0.25018868  0.58716187  0.10358893  1
  Cl  Cl23  1  0.24750884  0.41133293  0.34408601  1
  Cl  Cl24  1  0.74981134  0.41281626  0.10356305  1
  Cl  Cl25  1  0.75245347  0.58866508  0.34404379  1
  Cl  Cl26  1  0.00826514  0.80867780  0.47257565  1
  Cl  Cl27  1  0.99165075  0.19145331  0.47258717  1
  Cl  Cl28  1  0.25019668  0.41282466  0.60354913  1
  Cl  Cl29  1  0.24754957  0.58866495  0.84403704  1
  Cl  Cl30  1  0.74981738  0.58715815  0.60357419  1
  Cl  Cl31  1  0.75247611  0.41133053  0.84408551  1
  Cl  Cl32  1  0.99173423  0.80868220  -0.02743273  1
  Cl  Cl33  1  0.00834781  0.19144186  -0.02742442  1
  Cl  Cl34  1  0.75018939  0.08714556  0.60354876  1
  Cl  Cl35  1  0.74758109  0.91130362  0.84404277  1
  Cl  Cl36  1  0.24981122  0.91281073  0.60357675  1
  Cl  Cl37  1  0.25250887  0.08864084  0.84408016  1
  Cl  Cl38  1  0.50830274  0.30860844  -0.02740720  1
  Cl  Cl39  1  0.49168854  0.69136729  -0.02744628  1
