# generated using pymatgen
data_KIO4
_symmetry_space_group_name_H-M   'P 1'
_cell_length_a   6.26176609
_cell_length_b   6.26152251
_cell_length_c   10.16884883
_cell_angle_alpha   89.99783057
_cell_angle_beta   90.01750658
_cell_angle_gamma   90.00125075
_symmetry_Int_Tables_number   1
_chemical_formula_structural   KIO4
_chemical_formula_sum   'K2 I2 O8'
_cell_volume   398.70213116
_cell_formula_units_Z   2
loop_
 _symmetry_equiv_pos_site_id
 _symmetry_equiv_pos_as_xyz
  1  'x, y, z'
loop_
 _atom_site_type_symbol
 _atom_site_label
 _atom_site_symmetry_multiplicity
 _atom_site_fract_x
 _atom_site_fract_y
 _atom_site_fract_z
 _atom_site_occupancy
  K  K0  1  0.49991841  -0.00006384  0.74996706  1
  K  K1  1  -0.00005773  0.50009084  0.25004849  1
  I  I2  1  0.50000751  0.50002080  0.49999593  1
  I  I3  1  0.00004860  -0.00001944  -0.00001513  1
  O  O4  1  0.18725841  0.85895505  0.89863162  1
  O  O5  1  0.64111714  0.31266735  0.60128911  1
  O  O6  1  0.81275219  0.14092932  0.89858964  1
  O  O7  1  0.35902520  0.68713292  0.60144940  1
  O  O8  1  0.14104953  0.18730581  0.10133677  1
  O  O9  1  0.31265146  0.35903082  0.39867191  1
  O  O10  1  0.85908743  0.81278806  0.10140967  1
  O  O11  1  0.68714185  0.64116230  0.39862552  1
