# generated using pymatgen
data_NaI3Cl4
_symmetry_space_group_name_H-M   'P 1'
_cell_length_a   7.58156873
_cell_length_b   7.58156940
_cell_length_c   7.58156822
_cell_angle_alpha   89.99987884
_cell_angle_beta   89.99996890
_cell_angle_gamma   90.00004156
_symmetry_Int_Tables_number   1
_chemical_formula_structural   NaI3Cl4
_chemical_formula_sum   'Na2 I6 Cl8'
_cell_volume   435.78997757
_cell_formula_units_Z   2
loop_
 _symmetry_equiv_pos_site_id
 _symmetry_equiv_pos_as_xyz
  1  'x, y, z'
loop_
 _atom_site_type_symbol
 _atom_site_label
 _atom_site_symmetry_multiplicity
 _atom_site_fract_x
 _atom_site_fract_y
 _atom_site_fract_z
 _atom_site_occupancy
  Na  Na0  1  0.50000002  0.49999999  0.49999993  1
  Na  Na1  1  -0.00000002  0.00000000  0.00000007  1
  I  I2  1  -0.00000039  0.49999998  0.00000071  1
  I  I3  1  0.50000039  0.00000002  0.49999930  1
  I  I4  1  -0.00000044  0.49999998  0.49999930  1
  I  I5  1  0.50000044  0.00000001  0.00000071  1
  I  I6  1  0.50000040  0.49999998  0.00000078  1
  I  I7  1  -0.00000040  0.00000002  0.49999923  1
  Cl  Cl8  1  0.24999986  0.25000000  0.25000008  1
  Cl  Cl9  1  0.24999986  0.75000001  0.25000008  1
  Cl  Cl10  1  0.75000013  0.25000000  0.74999993  1
  Cl  Cl11  1  0.24999988  0.74999996  0.74999989  1
  Cl  Cl12  1  0.75000013  0.25000000  0.25000005  1
  Cl  Cl13  1  0.75000013  0.75000002  0.74999992  1
  Cl  Cl14  1  0.24999987  0.25000002  0.74999994  1
  Cl  Cl15  1  0.75000016  0.75000000  0.25000006  1
