# generated using pymatgen
data_Na6LiI6
_symmetry_space_group_name_H-M   'P 1'
_cell_length_a   10.19121822
_cell_length_b   10.19121810
_cell_length_c   10.19121667
_cell_angle_alpha   89.99997920
_cell_angle_beta   90.00002127
_cell_angle_gamma   90.00000021
_symmetry_Int_Tables_number   1
_chemical_formula_structural   Na6LiI6
_chemical_formula_sum   'Na12 Li2 I12'
_cell_volume   1058.46921668
_cell_formula_units_Z   2
loop_
 _symmetry_equiv_pos_site_id
 _symmetry_equiv_pos_as_xyz
  1  'x, y, z'
loop_
 _atom_site_type_symbol
 _atom_site_label
 _atom_site_symmetry_multiplicity
 _atom_site_fract_x
 _atom_site_fract_y
 _atom_site_fract_z
 _atom_site_occupancy
  Na  Na0  1  0.00000000  0.75041897  0.49999847  1
  Na  Na1  1  0.49999972  -0.00000030  0.75041892  1
  Na  Na2  1  0.75041891  0.50000000  -0.00000151  1
  Na  Na3  1  0.50000029  0.00000030  0.24958107  1
  Na  Na4  1  0.24958109  0.50000001  0.00000151  1
  Na  Na5  1  -0.00000000  0.24958102  0.50000153  1
  Na  Na6  1  0.50000000  0.25041897  -0.00000153  1
  Na  Na7  1  -0.00000028  0.49999970  0.25041892  1
  Na  Na8  1  0.25041893  -0.00000000  0.49999849  1
  Na  Na9  1  0.74958107  -0.00000001  0.50000151  1
  Na  Na10  1  0.00000028  0.50000029  0.74958109  1
  Na  Na11  1  0.50000001  0.74958104  0.00000152  1
  Li  Li12  1  0.00000001  -0.00000000  0.00000000  1
  Li  Li13  1  0.50000000  0.50000000  0.49999998  1
  I  I14  1  -0.00000030  0.00000030  0.30454894  1
  I  I15  1  0.00000030  -0.00000032  0.69545106  1
  I  I16  1  0.50000030  0.49999970  0.19545107  1
  I  I17  1  -0.00000001  0.69545099  0.00000004  1
  I  I18  1  0.69545098  0.00000000  -0.00000008  1
  I  I19  1  0.49999970  0.50000031  0.80454893  1
  I  I20  1  0.19545098  0.50000000  0.49999992  1
  I  I21  1  0.00000000  0.30454901  -0.00000002  1
  I  I22  1  0.30454902  0.00000000  0.00000009  1
  I  I23  1  0.50000000  0.19545100  0.50000002  1
  I  I24  1  0.80454902  0.50000000  0.50000008  1
  I  I25  1  0.50000000  0.80454900  0.49999996  1
