# generated using pymatgen
data_NaIN
_symmetry_space_group_name_H-M   'P 1'
_cell_length_a   4.66754627
_cell_length_b   4.66805490
_cell_length_c   12.09814127
_cell_angle_alpha   90.02021027
_cell_angle_beta   90.02988916
_cell_angle_gamma   119.99174203
_symmetry_Int_Tables_number   1
_chemical_formula_structural   NaIN
_chemical_formula_sum   'Na3 I3 N3'
_cell_volume   228.30206268
_cell_formula_units_Z   3
loop_
 _symmetry_equiv_pos_site_id
 _symmetry_equiv_pos_as_xyz
  1  'x, y, z'
loop_
 _atom_site_type_symbol
 _atom_site_label
 _atom_site_symmetry_multiplicity
 _atom_site_fract_x
 _atom_site_fract_y
 _atom_site_fract_z
 _atom_site_occupancy
  Na  Na0  1  0.60299863  0.39134857  0.11947897  1
  Na  Na1  1  0.60828010  0.21164541  0.45278068  1
  Na  Na2  1  0.78864717  0.39754212  0.78601675  1
  I  I3  1  0.38878586  0.61337123  0.61899252  1
  I  I4  1  0.38724700  0.77645474  0.95218934  1
  I  I5  1  0.22364696  0.61000455  0.28577760  1
  N  N6  1  0.20214471  0.39842286  0.45196373  1
  N  N7  1  0.60136981  -0.19572928  0.78532995  1
  N  N8  1  0.19687976  0.79693981  0.11869251  1
