# generated using pymatgen
data_Li3IBr3
_symmetry_space_group_name_H-M   'P 1'
_cell_length_a   4.92752985
_cell_length_b   4.92751709
_cell_length_c   9.37297887
_cell_angle_alpha   89.99495321
_cell_angle_beta   89.99535395
_cell_angle_gamma   90.00000616
_symmetry_Int_Tables_number   1
_chemical_formula_structural   Li3IBr3
_chemical_formula_sum   'Li3 I1 Br3'
_cell_volume   227.58049540
_cell_formula_units_Z   1
loop_
 _symmetry_equiv_pos_site_id
 _symmetry_equiv_pos_as_xyz
  1  'x, y, z'
loop_
 _atom_site_type_symbol
 _atom_site_label
 _atom_site_symmetry_multiplicity
 _atom_site_fract_x
 _atom_site_fract_y
 _atom_site_fract_z
 _atom_site_occupancy
  Li  Li0  1  0.49998280  0.49998157  0.45832469  1
  Li  Li1  1  -0.00001838  -0.00002004  0.37335472  1
  Li  Li2  1  0.50012424  0.50013560  0.13191296  1
  I  I3  1  -0.00007028  -0.00007661  -0.03579256  1
  Br  Br4  1  0.00001244  0.00001331  0.64034887  1
  Br  Br5  1  0.49998793  -0.00002057  0.30554708  1
  Br  Br6  1  -0.00001876  0.49998676  0.30554352  1
