# generated using pymatgen
data_LiB2I3
_symmetry_space_group_name_H-M   'P 1'
_cell_length_a   8.02299151
_cell_length_b   8.53748350
_cell_length_c   7.12581455
_cell_angle_alpha   90.00007745
_cell_angle_beta   52.23253308
_cell_angle_gamma   89.99985737
_symmetry_Int_Tables_number   1
_chemical_formula_structural   LiB2I3
_chemical_formula_sum   'Li2 B4 I6'
_cell_volume   385.83728444
_cell_formula_units_Z   2
loop_
 _symmetry_equiv_pos_site_id
 _symmetry_equiv_pos_as_xyz
  1  'x, y, z'
loop_
 _atom_site_type_symbol
 _atom_site_label
 _atom_site_symmetry_multiplicity
 _atom_site_fract_x
 _atom_site_fract_y
 _atom_site_fract_z
 _atom_site_occupancy
  Li  Li0  1  0.85014199  0.24999991  0.45590676  1
  Li  Li1  1  0.14985824  0.75000009  0.54409322  1
  B  B2  1  0.28604558  0.50816822  0.52635810  1
  B  B3  1  0.28604646  -0.00816861  0.52635629  1
  B  B4  1  0.71395440  0.49183172  0.47364185  1
  B  B5  1  0.71395352  0.00816867  0.47364367  1
  I  I6  1  0.15632369  0.25000048  0.54055444  1
  I  I7  1  0.84367619  0.74999952  0.45944583  1
  I  I8  1  0.34508665  0.00217230  -0.17822567  1
  I  I9  1  0.34508650  0.49782614  -0.17822580  1
  I  I10  1  0.65491332  -0.00217232  0.17822559  1
  I  I11  1  0.65491347  0.50217388  0.17822572  1
