# generated using pymatgen
data_LiICl
_symmetry_space_group_name_H-M   'P 1'
_cell_length_a   6.06395340
_cell_length_b   6.10134791
_cell_length_c   10.62551580
_cell_angle_alpha   91.98850627
_cell_angle_beta   90.04412688
_cell_angle_gamma   90.17707661
_symmetry_Int_Tables_number   1
_chemical_formula_structural   LiICl
_chemical_formula_sum   'Li4 I4 Cl4'
_cell_volume   392.88714312
_cell_formula_units_Z   4
loop_
 _symmetry_equiv_pos_site_id
 _symmetry_equiv_pos_as_xyz
  1  'x, y, z'
loop_
 _atom_site_type_symbol
 _atom_site_label
 _atom_site_symmetry_multiplicity
 _atom_site_fract_x
 _atom_site_fract_y
 _atom_site_fract_z
 _atom_site_occupancy
  Li  Li0  1  0.25141027  -0.11796815  0.09132072  1
  Li  Li1  1  0.24842673  0.11129585  0.90751982  1
  Li  Li2  1  0.75159853  -0.11128194  0.09249815  1
  Li  Li3  1  0.74858125  0.11794199  0.90864527  1
  I  I4  1  0.24956688  0.68771874  0.32840830  1
  I  I5  1  0.25013607  0.23249331  0.65267869  1
  I  I6  1  0.74985528  0.76750815  0.34731676  1
  I  I7  1  0.75042459  0.31230901  0.67162275  1
  Cl  Cl8  1  -0.00134463  0.21905427  0.08391652  1
  Cl  Cl9  1  0.00134154  0.78091535  -0.08391627  1
  Cl  Cl10  1  0.49814371  0.21828317  0.08447967  1
  Cl  Cl11  1  0.50185978  0.78173025  -0.08449039  1
