# generated using pymatgen
data_KBr5N2
_symmetry_space_group_name_H-M   'P 1'
_cell_length_a   8.56203395
_cell_length_b   7.66963191
_cell_length_c   9.42621183
_cell_angle_alpha   92.33453653
_cell_angle_beta   90.58530930
_cell_angle_gamma   89.01408389
_symmetry_Int_Tables_number   1
_chemical_formula_structural   KBr5N2
_chemical_formula_sum   'K2 Br10 N4'
_cell_volume   618.36380520
_cell_formula_units_Z   2
loop_
 _symmetry_equiv_pos_site_id
 _symmetry_equiv_pos_as_xyz
  1  'x, y, z'
loop_
 _atom_site_type_symbol
 _atom_site_label
 _atom_site_symmetry_multiplicity
 _atom_site_fract_x
 _atom_site_fract_y
 _atom_site_fract_z
 _atom_site_occupancy
  K  K0  1  0.27676683  0.63934506  -0.06750696  1
  K  K1  1  0.13213641  0.10433603  0.54227304  1
  Br  Br2  1  0.14048821  0.02730848  -0.11085762  1
  Br  Br3  1  0.26974353  0.48921807  0.59537522  1
  Br  Br4  1  0.51302945  0.01718181  0.21493992  1
  Br  Br5  1  0.81973503  0.98332385  0.73104902  1
  Br  Br6  1  0.59325678  0.48053886  0.76058046  1
  Br  Br7  1  -0.00289226  0.17431645  0.16133473  1
  Br  Br8  1  0.45699641  0.99242650  0.73088401  1
  Br  Br9  1  0.35978861  0.69032170  0.34353043  1
  Br  Br10  1  -0.04496707  0.49449729  0.75898957  1
  Br  Br11  1  0.73447059  0.38327018  0.33113789  1
  N  N12  1  0.63785114  -0.03074008  0.61594568  1
  N  N13  1  -0.22497477  0.50075922  0.87520046  1
  N  N14  1  -0.08135892  0.25088165  0.34123001  1
  N  N15  1  0.41993000  -0.19698506  0.17589415  1
