# generated using pymatgen
data_Li2SI4
_symmetry_space_group_name_H-M   'P 1'
_cell_length_a   9.55338571
_cell_length_b   9.17444373
_cell_length_c   11.89612335
_cell_angle_alpha   94.39651773
_cell_angle_beta   90.04280322
_cell_angle_gamma   89.87458565
_symmetry_Int_Tables_number   1
_chemical_formula_structural   Li2SI4
_chemical_formula_sum   'Li8 S4 I16'
_cell_volume   1039.58873659
_cell_formula_units_Z   4
loop_
 _symmetry_equiv_pos_site_id
 _symmetry_equiv_pos_as_xyz
  1  'x, y, z'
loop_
 _atom_site_type_symbol
 _atom_site_label
 _atom_site_symmetry_multiplicity
 _atom_site_fract_x
 _atom_site_fract_y
 _atom_site_fract_z
 _atom_site_occupancy
  Li  Li0  1  0.64287535  0.20315142  -0.03382605  1
  Li  Li1  1  0.32374229  0.84562127  0.02978972  1
  Li  Li2  1  0.67676896  0.84377706  0.53096027  1
  Li  Li3  1  0.35806470  0.20254186  0.46678668  1
  Li  Li4  1  0.82374042  0.34562120  0.52978798  1
  Li  Li5  1  0.14287528  0.70314953  0.46617456  1
  Li  Li6  1  0.17677038  0.34377689  0.03095766  1
  Li  Li7  1  0.85806500  0.70254175  -0.03321314  1
  S  S8  1  0.56645611  -0.04166094  0.01220263  1
  S  S9  1  0.43411700  -0.04304032  0.51129410  1
  S  S10  1  0.06645433  0.45833747  0.51220072  1
  S  S11  1  -0.06588005  0.45696160  0.01129285  1
  I  I12  1  0.27064811  0.87150043  0.65846952  1
  I  I13  1  0.61034814  0.26907315  0.36917058  1
  I  I14  1  0.14844056  0.07837024  0.12591076  1
  I  I15  1  0.38862401  0.26438513  0.86946324  1
  I  I16  1  0.61823024  0.77823457  0.83895497  1
  I  I17  1  0.72950244  0.87082662  0.15924833  1
  I  I18  1  0.85033334  0.07952966  0.62382589  1
  I  I19  1  0.38184932  0.77769526  0.33775150  1
  I  I20  1  0.11034985  0.76907164  0.86917141  1
  I  I21  1  0.77064611  0.37149922  0.15847104  1
  I  I22  1  0.88862259  0.76438389  0.36946524  1
  I  I23  1  0.64843945  0.57837016  0.62591260  1
  I  I24  1  0.11823024  0.27823296  0.33895330  1
  I  I25  1  0.22950152  0.37082581  0.65924738  1
  I  I26  1  0.88184937  0.27769422  0.83775044  1
  I  I27  1  0.35033493  0.57952824  0.12382583  1
