# generated using pymatgen
data_LiP3I4
_symmetry_space_group_name_H-M   'P 1'
_cell_length_a   11.69699456
_cell_length_b   12.16642293
_cell_length_c   4.11462463
_cell_angle_alpha   89.98759697
_cell_angle_beta   89.99555053
_cell_angle_gamma   98.53575150
_symmetry_Int_Tables_number   1
_chemical_formula_structural   LiP3I4
_chemical_formula_sum   'Li2 P6 I8'
_cell_volume   579.06868124
_cell_formula_units_Z   2
loop_
 _symmetry_equiv_pos_site_id
 _symmetry_equiv_pos_as_xyz
  1  'x, y, z'
loop_
 _atom_site_type_symbol
 _atom_site_label
 _atom_site_symmetry_multiplicity
 _atom_site_fract_x
 _atom_site_fract_y
 _atom_site_fract_z
 _atom_site_occupancy
  Li  Li0  1  0.10402107  0.49749691  -0.22216394  1
  Li  Li1  1  0.89596859  0.50253373  0.27781254  1
  P  P2  1  0.46062307  0.70467480  0.87685064  1
  P  P3  1  0.04539066  -0.07673133  0.32544033  1
  P  P4  1  0.11422364  0.00450106  0.82488744  1
  P  P5  1  0.53939507  0.29531846  0.37680586  1
  P  P6  1  0.88580463  -0.00448384  0.32469915  1
  P  P7  1  0.95460627  0.07674219  0.82561398  1
  I  I8  1  -0.05214713  0.64391481  0.77669377  1
  I  I9  1  0.05213214  0.35608119  0.27669649  1
  I  I10  1  0.37431756  0.21513274  0.01844881  1
  I  I11  1  0.33898392  0.85482472  -0.12050682  1
  I  I12  1  0.62568277  0.78485745  0.51853544  1
  I  I13  1  0.66101821  0.14515451  0.37946450  1
  I  I14  1  0.66149690  0.44305825  0.02039415  1
  I  I15  1  0.33848263  0.55692436  0.52032767  1
