# generated using pymatgen
data_Na3BI4
_symmetry_space_group_name_H-M   'P 1'
_cell_length_a   5.51204290
_cell_length_b   5.51204574
_cell_length_c   9.84026477
_cell_angle_alpha   90.00006429
_cell_angle_beta   90.00026634
_cell_angle_gamma   89.99999561
_symmetry_Int_Tables_number   1
_chemical_formula_structural   Na3BI4
_chemical_formula_sum   'Na3 B1 I4'
_cell_volume   298.97314906
_cell_formula_units_Z   1
loop_
 _symmetry_equiv_pos_site_id
 _symmetry_equiv_pos_as_xyz
  1  'x, y, z'
loop_
 _atom_site_type_symbol
 _atom_site_label
 _atom_site_symmetry_multiplicity
 _atom_site_fract_x
 _atom_site_fract_y
 _atom_site_fract_z
 _atom_site_occupancy
  Na  Na0  1  0.50000017  0.49999994  0.50000000  1
  Na  Na1  1  -0.00000015  0.00000006  0.49999996  1
  Na  Na2  1  -0.00000058  0.00000022  -0.00000003  1
  B  B3  1  0.49999727  0.50000078  0.00000005  1
  I  I4  1  0.50000046  0.00000009  0.64248875  1
  I  I5  1  -0.00000027  0.49999986  0.35751124  1
  I  I6  1  0.00000328  0.49999998  0.88499502  1
  I  I7  1  0.49999983  -0.00000094  0.11500502  1
