# generated using pymatgen
data_Li3Be3Br4
_symmetry_space_group_name_H-M   'P 1'
_cell_length_a   5.66368525
_cell_length_b   7.31120366
_cell_length_c   11.08002777
_cell_angle_alpha   89.99990120
_cell_angle_beta   89.95842703
_cell_angle_gamma   89.99993551
_symmetry_Int_Tables_number   1
_chemical_formula_structural   Li3Be3Br4
_chemical_formula_sum   'Li6 Be6 Br8'
_cell_volume   458.80561712
_cell_formula_units_Z   2
loop_
 _symmetry_equiv_pos_site_id
 _symmetry_equiv_pos_as_xyz
  1  'x, y, z'
loop_
 _atom_site_type_symbol
 _atom_site_label
 _atom_site_symmetry_multiplicity
 _atom_site_fract_x
 _atom_site_fract_y
 _atom_site_fract_z
 _atom_site_occupancy
  Li  Li0  1  -0.00000030  0.49997235  0.50000497  1
  Li  Li1  1  0.50000008  0.49999683  -0.00000082  1
  Li  Li2  1  0.25000706  0.40271284  0.74999099  1
  Li  Li3  1  0.74999237  0.59728210  0.25000970  1
  Li  Li4  1  0.74999287  0.40248158  0.74999122  1
  Li  Li5  1  0.25000741  0.59751321  0.25000962  1
  Be  Be6  1  0.19047962  -0.00429189  0.00035522  1
  Be  Be7  1  0.80951918  0.00428165  -0.00035483  1
  Be  Be8  1  0.69046888  0.00426654  0.50035123  1
  Be  Be9  1  0.30953447  -0.00429420  0.49964869  1
  Be  Be10  1  0.49999928  0.50007361  0.50000668  1
  Be  Be11  1  0.00000016  0.50001560  -0.00000193  1
  Br  Br12  1  0.50019316  0.34743659  0.17738517  1
  Br  Br13  1  0.49980648  0.65256187  0.82261326  1
  Br  Br14  1  0.00019272  0.65256587  0.67738326  1
  Br  Br15  1  -0.00019275  0.34743386  0.32260884  1
  Br  Br16  1  0.49964000  0.88349080  0.12385535  1
  Br  Br17  1  0.50035959  0.11650405  0.87614623  1
  Br  Br18  1  0.00035070  0.88349091  0.37614363  1
  Br  Br19  1  -0.00035097  0.11650582  0.62385351  1
