# generated using pymatgen
data_Li2SCl3
_symmetry_space_group_name_H-M   'P 1'
_cell_length_a   6.42956859
_cell_length_b   6.42957949
_cell_length_c   6.58610865
_cell_angle_alpha   90.00000190
_cell_angle_beta   90.00000314
_cell_angle_gamma   120.00411457
_symmetry_Int_Tables_number   1
_chemical_formula_structural   Li2SCl3
_chemical_formula_sum   'Li4 S2 Cl6'
_cell_volume   235.77943302
_cell_formula_units_Z   2
loop_
 _symmetry_equiv_pos_site_id
 _symmetry_equiv_pos_as_xyz
  1  'x, y, z'
loop_
 _atom_site_type_symbol
 _atom_site_label
 _atom_site_symmetry_multiplicity
 _atom_site_fract_x
 _atom_site_fract_y
 _atom_site_fract_z
 _atom_site_occupancy
  Li  Li0  1  0.66666908  0.33333197  -0.00076387  1
  Li  Li1  1  0.33333084  0.66666802  0.00076342  1
  Li  Li2  1  0.66666857  0.33333136  0.50076318  1
  Li  Li3  1  0.33333150  0.66666866  0.49923661  1
  S  S4  1  -0.00000004  -0.00000003  0.00000112  1
  S  S5  1  0.00000004  0.00000003  0.50000085  1
  Cl  Cl6  1  0.61896054  0.00025016  0.74999986  1
  Cl  Cl7  1  0.38103903  -0.00025085  0.24999974  1
  Cl  Cl8  1  0.38129824  0.38100713  0.74999984  1
  Cl  Cl9  1  0.61870150  0.61899330  0.24999963  1
  Cl  Cl10  1  -0.00032629  0.61867297  0.74999985  1
  Cl  Cl11  1  0.00032697  0.38132729  0.24999976  1
