# generated using pymatgen
data_Na7N2O
_symmetry_space_group_name_H-M   'P 1'
_cell_length_a   7.07384665
_cell_length_b   6.18428235
_cell_length_c   8.29751160
_cell_angle_alpha   90.00167728
_cell_angle_beta   90.00551784
_cell_angle_gamma   90.00003632
_symmetry_Int_Tables_number   1
_chemical_formula_structural   Na7N2O
_chemical_formula_sum   'Na14 N4 O2'
_cell_volume   362.98845855
_cell_formula_units_Z   2
loop_
 _symmetry_equiv_pos_site_id
 _symmetry_equiv_pos_as_xyz
  1  'x, y, z'
loop_
 _atom_site_type_symbol
 _atom_site_label
 _atom_site_symmetry_multiplicity
 _atom_site_fract_x
 _atom_site_fract_y
 _atom_site_fract_z
 _atom_site_occupancy
  Na  Na0  1  0.24277202  0.72576109  0.22618793  1
  Na  Na1  1  0.24277923  0.27420426  0.22623903  1
  Na  Na2  1  0.75715597  0.72577413  0.22607405  1
  Na  Na3  1  0.75714886  0.27419185  0.22612384  1
  Na  Na4  1  -0.00005326  0.72044164  0.52319807  1
  Na  Na5  1  0.00015472  0.00011040  -0.00988457  1
  Na  Na6  1  -0.00005341  0.27951792  0.52319041  1
  Na  Na7  1  0.25723401  0.77423434  0.77380958  1
  Na  Na8  1  0.25721088  0.22580332  0.77376387  1
  Na  Na9  1  0.74283784  0.77422139  0.77392358  1
  Na  Na10  1  0.74286115  0.22581603  0.77387888  1
  Na  Na11  1  0.50005280  0.77955998  0.47680726  1
  Na  Na12  1  0.49984604  0.49984548  0.00988054  1
  Na  Na13  1  0.50005350  0.22049664  0.47682044  1
  N  N14  1  0.00006119  0.50000615  0.77701642  1
  N  N15  1  0.49993846  0.00000772  0.22297677  1
  N  N16  1  0.00001162  -0.00000720  0.71614001  1
  N  N17  1  0.49998835  0.50000507  0.28386148  1
  O  O18  1  -0.00003909  0.49997140  0.30356548  1
  O  O19  1  0.50003911  0.00003836  0.69642692  1
