# generated using pymatgen
data_LiI3Cl4
_symmetry_space_group_name_H-M   'P 1'
_cell_length_a   5.78110312
_cell_length_b   5.78110311
_cell_length_c   8.92570970
_cell_angle_alpha   89.99997844
_cell_angle_beta   89.99995023
_cell_angle_gamma   89.99999973
_symmetry_Int_Tables_number   1
_chemical_formula_structural   LiI3Cl4
_chemical_formula_sum   'Li1 I3 Cl4'
_cell_volume   298.30751134
_cell_formula_units_Z   1
loop_
 _symmetry_equiv_pos_site_id
 _symmetry_equiv_pos_as_xyz
  1  'x, y, z'
loop_
 _atom_site_type_symbol
 _atom_site_label
 _atom_site_symmetry_multiplicity
 _atom_site_fract_x
 _atom_site_fract_y
 _atom_site_fract_z
 _atom_site_occupancy
  Li  Li0  1  0.49997640  0.49999269  0.27507850  1
  I  I1  1  -0.00000179  0.00000044  0.79127272  1
  I  I2  1  0.49999797  0.49999897  0.79488606  1
  I  I3  1  0.00000080  0.00000020  0.28228124  1
  Cl  Cl4  1  0.00000179  0.49999955  0.79295056  1
  Cl  Cl5  1  0.50000168  0.00000093  0.79295056  1
  Cl  Cl6  1  0.00001795  0.50000168  0.28019901  1
  Cl  Cl7  1  0.50000521  0.00000555  0.28019902  1
