# generated using pymatgen
data_Na6I6Br
_symmetry_space_group_name_H-M   'P 1'
_cell_length_a   11.76505351
_cell_length_b   9.75778160
_cell_length_c   6.41266443
_cell_angle_alpha   108.70305658
_cell_angle_beta   57.75808753
_cell_angle_gamma   129.17652062
_symmetry_Int_Tables_number   1
_chemical_formula_structural   Na6I6Br
_chemical_formula_sum   'Na6 I6 Br1'
_cell_volume   482.54008078
_cell_formula_units_Z   1
loop_
 _symmetry_equiv_pos_site_id
 _symmetry_equiv_pos_as_xyz
  1  'x, y, z'
loop_
 _atom_site_type_symbol
 _atom_site_label
 _atom_site_symmetry_multiplicity
 _atom_site_fract_x
 _atom_site_fract_y
 _atom_site_fract_z
 _atom_site_occupancy
  Na  Na0  1  0.15723391  0.80231110  0.49273112  1
  Na  Na1  1  0.75309986  0.50132814  0.24617033  1
  Na  Na2  1  0.31192305  0.20165722  0.03710527  1
  Na  Na3  1  0.66789174  0.80238902  -0.00973352  1
  Na  Na4  1  0.22939664  0.45881497  0.75067129  1
  Na  Na5  1  0.86314571  0.23148697  0.50235526  1
  I  I6  1  0.84575270  0.21881159  0.01373831  1
  I  I7  1  0.59392182  0.82498760  0.57198997  1
  I  I8  1  0.25373441  0.50738586  0.25107276  1
  I  I9  1  0.35974999  0.22036832  0.49966133  1
  I  I10  1  0.76062142  0.51571267  0.74553861  1
  I  I11  1  0.25001327  0.82610017  0.91334924  1
  Br  Br12  1  -0.04648452  -0.11135365  0.23535003  1
