# generated using pymatgen
data_NaSBr4
_symmetry_space_group_name_H-M   'P 1'
_cell_length_a   13.94864516
_cell_length_b   7.27987039
_cell_length_c   3.76224560
_cell_angle_alpha   89.99886201
_cell_angle_beta   89.99797203
_cell_angle_gamma   89.96628778
_symmetry_Int_Tables_number   1
_chemical_formula_structural   NaSBr4
_chemical_formula_sum   'Na2 S2 Br8'
_cell_volume   382.03463734
_cell_formula_units_Z   2
loop_
 _symmetry_equiv_pos_site_id
 _symmetry_equiv_pos_as_xyz
  1  'x, y, z'
loop_
 _atom_site_type_symbol
 _atom_site_label
 _atom_site_symmetry_multiplicity
 _atom_site_fract_x
 _atom_site_fract_y
 _atom_site_fract_z
 _atom_site_occupancy
  Na  Na0  1  0.00000679  0.00003545  0.77650935  1
  Na  Na1  1  0.49999019  0.49996679  -0.25528126  1
  S  S2  1  0.49998023  -0.00003048  0.24499073  1
  S  S3  1  0.00002672  0.50002877  0.27523800  1
  Br  Br4  1  0.37633406  0.23966198  0.24528571  1
  Br  Br5  1  0.62369673  0.23936186  0.24459578  1
  Br  Br6  1  0.37627495  0.76057847  0.24525359  1
  Br  Br7  1  0.62363553  0.76027687  0.24465930  1
  Br  Br8  1  0.12366756  0.73952385  0.27567402  1
  Br  Br9  1  0.12358404  0.26018124  0.27557528  1
  Br  Br10  1  0.87644471  0.73986790  0.27618735  1
  Br  Br11  1  0.87635849  0.26054732  0.27631214  1
