# generated using pymatgen
data_LiBrO2
_symmetry_space_group_name_H-M   'P 1'
_cell_length_a   5.74681620
_cell_length_b   5.95475473
_cell_length_c   6.01019365
_cell_angle_alpha   89.99958457
_cell_angle_beta   89.99983205
_cell_angle_gamma   90.00005055
_symmetry_Int_Tables_number   1
_chemical_formula_structural   LiBrO2
_chemical_formula_sum   'Li4 Br4 O8'
_cell_volume   205.67412139
_cell_formula_units_Z   4
loop_
 _symmetry_equiv_pos_site_id
 _symmetry_equiv_pos_as_xyz
  1  'x, y, z'
loop_
 _atom_site_type_symbol
 _atom_site_label
 _atom_site_symmetry_multiplicity
 _atom_site_fract_x
 _atom_site_fract_y
 _atom_site_fract_z
 _atom_site_occupancy
  Li  Li0  1  0.49999955  0.50000088  0.00245356  1
  Li  Li1  1  -0.00000012  -0.00000064  0.00244247  1
  Li  Li2  1  0.49999956  0.00000070  0.50245039  1
  Li  Li3  1  -0.00000013  0.49999938  0.50244014  1
  Br  Br4  1  0.00000185  0.50000589  -0.01643969  1
  Br  Br5  1  0.50000134  -0.00000333  -0.01645657  1
  Br  Br6  1  0.00000164  0.00000521  0.48355085  1
  Br  Br7  1  0.50000086  0.49999802  0.48353703  1
  O  O8  1  0.56694913  0.77876315  0.79815819  1
  O  O9  1  0.43304990  0.22123763  0.79815051  1
  O  O10  1  0.93304805  0.27874720  0.79812772  1
  O  O11  1  0.06695037  0.72124925  0.79813710  1
  O  O12  1  0.56695010  0.27876534  0.29815879  1
  O  O13  1  0.43304933  0.72123444  0.29815225  1
  O  O14  1  0.93304779  0.77875094  0.29812999  1
  O  O15  1  0.06695077  0.22124594  0.29813915  1
