# generated using pymatgen
data_KC3I2
_symmetry_space_group_name_H-M   'P 1'
_cell_length_a   6.25186185
_cell_length_b   6.25155144
_cell_length_c   3.37279278
_cell_angle_alpha   89.99703862
_cell_angle_beta   90.00159653
_cell_angle_gamma   120.00545558
_symmetry_Int_Tables_number   1
_chemical_formula_structural   KC3I2
_chemical_formula_sum   'K1 C3 I2'
_cell_volume   114.15464684
_cell_formula_units_Z   1
loop_
 _symmetry_equiv_pos_site_id
 _symmetry_equiv_pos_as_xyz
  1  'x, y, z'
loop_
 _atom_site_type_symbol
 _atom_site_label
 _atom_site_symmetry_multiplicity
 _atom_site_fract_x
 _atom_site_fract_y
 _atom_site_fract_z
 _atom_site_occupancy
  K  K0  1  -0.00000000  -0.00000000  0.00000001  1
  C  C1  1  0.49999999  0.50000000  0.49999999  1
  C  C2  1  0.00000001  0.50000000  0.49999999  1
  C  C3  1  0.50000000  -0.00000000  0.49999998  1
  I  I4  1  0.33333132  0.66665193  0.00039944  1
  I  I5  1  0.66666867  0.33334807  -0.00039940  1
