# generated using pymatgen
data_Li4Br2N
_symmetry_space_group_name_H-M   'P 1'
_cell_length_a   6.58443171
_cell_length_b   10.66603098
_cell_length_c   6.61683770
_cell_angle_alpha   89.99082276
_cell_angle_beta   90.01708952
_cell_angle_gamma   89.99998714
_symmetry_Int_Tables_number   1
_chemical_formula_structural   Li4Br2N
_chemical_formula_sum   'Li16 Br8 N4'
_cell_volume   464.69884766
_cell_formula_units_Z   4
loop_
 _symmetry_equiv_pos_site_id
 _symmetry_equiv_pos_as_xyz
  1  'x, y, z'
loop_
 _atom_site_type_symbol
 _atom_site_label
 _atom_site_symmetry_multiplicity
 _atom_site_fract_x
 _atom_site_fract_y
 _atom_site_fract_z
 _atom_site_occupancy
  Li  Li0  1  0.17717127  0.61124320  0.30623096  1
  Li  Li1  1  0.82282779  0.38875626  0.69376890  1
  Li  Li2  1  0.82285021  0.38872869  0.30623820  1
  Li  Li3  1  0.17715066  0.61127183  0.69376171  1
  Li  Li4  1  0.82281079  0.61127557  0.80624922  1
  Li  Li5  1  0.17719018  0.38872385  0.19375041  1
  Li  Li6  1  0.17715049  0.38875704  0.80618023  1
  Li  Li7  1  0.82284872  0.61124340  0.19381944  1
  Li  Li8  1  0.67717855  0.11124333  0.30621182  1
  Li  Li9  1  0.32282206  0.88875706  0.69378800  1
  Li  Li10  1  0.67715658  0.11127103  0.69378052  1
  Li  Li11  1  0.32284276  0.88872862  0.30621935  1
  Li  Li12  1  0.32282303  0.11127189  0.80626913  1
  Li  Li13  1  0.67717652  0.88872841  0.19373145  1
  Li  Li14  1  0.32286224  0.11123890  0.19379988  1
  Li  Li15  1  0.67713841  0.88876072  0.80620074  1
  Br  Br16  1  0.50224295  0.31741154  -0.00001963  1
  Br  Br17  1  0.49775733  0.68258830  0.00001798  1
  Br  Br18  1  0.50223536  0.68260606  0.50002488  1
  Br  Br19  1  0.49776429  0.31739416  0.49997347  1
  Br  Br20  1  0.00221504  0.81738844  -0.00001789  1
  Br  Br21  1  0.99778521  0.18261141  0.00001916  1
  Br  Br22  1  0.00222247  0.18259339  0.50002606  1
  Br  Br23  1  0.99777722  0.81740683  0.49997519  1
  N  N24  1  0.50000005  -0.00000003  -0.00000047  1
  N  N25  1  0.49999990  0.00000008  0.49999929  1
  N  N26  1  0.00000005  0.49999996  0.00000097  1
  N  N27  1  -0.00000011  0.50000007  0.50000104  1
