# generated using pymatgen
data_KClO6
_symmetry_space_group_name_H-M   'P 1'
_cell_length_a   10.08430631
_cell_length_b   10.08429829
_cell_length_c   10.08429472
_cell_angle_alpha   89.99980444
_cell_angle_beta   90.00013200
_cell_angle_gamma   90.00049322
_symmetry_Int_Tables_number   1
_chemical_formula_structural   KClO6
_chemical_formula_sum   'K8 Cl8 O48'
_cell_volume   1025.50372420
_cell_formula_units_Z   8
loop_
 _symmetry_equiv_pos_site_id
 _symmetry_equiv_pos_as_xyz
  1  'x, y, z'
loop_
 _atom_site_type_symbol
 _atom_site_label
 _atom_site_symmetry_multiplicity
 _atom_site_fract_x
 _atom_site_fract_y
 _atom_site_fract_z
 _atom_site_occupancy
  K  K0  1  0.50000007  0.00000031  0.50000066  1
  K  K1  1  -0.00000030  0.50000043  0.50000016  1
  K  K2  1  0.49999925  0.49999953  0.00000081  1
  K  K3  1  0.00000035  0.00000011  -0.00000007  1
  K  K4  1  0.74999969  0.75000019  0.74999964  1
  K  K5  1  0.25000011  0.75000037  0.24999996  1
  K  K6  1  0.25000052  0.25000027  0.74999948  1
  K  K7  1  0.75000011  0.24999992  0.25000024  1
  Cl  Cl8  1  0.25000025  0.25000019  0.25000002  1
  Cl  Cl9  1  0.74999977  0.25000007  0.74999956  1
  Cl  Cl10  1  0.74999965  0.74999984  0.25000051  1
  Cl  Cl11  1  0.24999983  0.75000004  0.74999964  1
  Cl  Cl12  1  -0.00000127  0.49999896  -0.00000060  1
  Cl  Cl13  1  0.50000003  0.50000142  0.49999903  1
  Cl  Cl14  1  0.50000126  -0.00000020  0.00000170  1
  Cl  Cl15  1  0.00000026  -0.00000147  0.50000005  1
  O  O16  1  0.56158869  0.50900011  0.75475117  1
  O  O17  1  0.50901830  0.75474897  0.56158282  1
  O  O18  1  0.75474848  0.56158366  0.50901527  1
  O  O19  1  0.93841285  0.99099272  0.75474923  1
  O  O20  1  0.75474978  0.93841614  0.99098509  1
  O  O21  1  0.99099281  0.75474957  0.93841489  1
  O  O22  1  0.93841653  0.50901128  0.74525341  1
  O  O23  1  0.74525109  0.93841443  0.50900764  1
  O  O24  1  0.50900456  0.74524927  0.93841191  1
  O  O25  1  0.56158519  0.99099395  0.74525042  1
  O  O26  1  0.99097815  0.74525112  0.56158138  1
  O  O27  1  0.74524917  0.56158521  0.99098267  1
  O  O28  1  0.25474982  0.56158716  0.00900692  1
  O  O29  1  0.06158470  0.50900677  0.25474898  1
  O  O30  1  0.00900568  0.75474911  0.06158684  1
  O  O31  1  0.25474979  0.93841300  0.49100218  1
  O  O32  1  0.49098063  0.75475054  0.43841676  1
  O  O33  1  0.43841465  0.99099128  0.25474867  1
  O  O34  1  0.43841805  0.50902088  0.24525420  1
  O  O35  1  0.00902183  0.74525028  0.43841635  1
  O  O36  1  0.24525042  0.93841325  0.00900806  1
  O  O37  1  0.24525020  0.56158630  0.49100019  1
  O  O38  1  0.49099584  0.74525163  0.06158465  1
  O  O39  1  0.06158492  0.99099317  0.24525005  1
  O  O40  1  0.00900289  0.25474939  0.56158645  1
  O  O41  1  0.25474965  0.06158719  0.50899973  1
  O  O42  1  0.06158485  0.00900725  0.75474818  1
  O  O43  1  0.43841414  0.49100034  0.75474737  1
  O  O44  1  0.49100107  0.25475027  0.93841152  1
  O  O45  1  0.25474812  0.43841544  0.99099510  1
  O  O46  1  0.24525069  0.43841219  0.50899785  1
  O  O47  1  0.43841420  0.00900571  0.74525338  1
  O  O48  1  0.00900088  0.24525042  0.93841217  1
  O  O49  1  0.49098812  0.24525103  0.56158360  1
  O  O50  1  0.06158529  0.49098877  0.74524921  1
  O  O51  1  0.24525171  0.06158413  0.99099029  1
  O  O52  1  0.56158496  0.00900838  0.25474983  1
  O  O53  1  0.50899873  0.25474834  0.06158689  1
  O  O54  1  0.75474988  0.06158407  0.00901714  1
  O  O55  1  0.93841424  0.49099314  0.25474855  1
  O  O56  1  0.75474961  0.43841590  0.49098668  1
  O  O57  1  0.99099667  0.25474980  0.43841502  1
  O  O58  1  0.74525199  0.43841740  0.00901613  1
  O  O59  1  0.50901193  0.24525056  0.43841513  1
  O  O60  1  0.93841338  0.00900682  0.24525242  1
  O  O61  1  0.56158500  0.49097920  0.24524931  1
  O  O62  1  0.74525105  0.06158473  0.49099077  1
  O  O63  1  0.99099923  0.24524974  0.06158678  1
