# generated using pymatgen
data_LiBeBr2
_symmetry_space_group_name_H-M   'P 1'
_cell_length_a   6.99084819
_cell_length_b   6.88390080
_cell_length_c   4.37069895
_cell_angle_alpha   86.65595211
_cell_angle_beta   111.17661700
_cell_angle_gamma   96.30178975
_symmetry_Int_Tables_number   1
_chemical_formula_structural   LiBeBr2
_chemical_formula_sum   'Li2 Be2 Br4'
_cell_volume   194.90835349
_cell_formula_units_Z   2
loop_
 _symmetry_equiv_pos_site_id
 _symmetry_equiv_pos_as_xyz
  1  'x, y, z'
loop_
 _atom_site_type_symbol
 _atom_site_label
 _atom_site_symmetry_multiplicity
 _atom_site_fract_x
 _atom_site_fract_y
 _atom_site_fract_z
 _atom_site_occupancy
  Li  Li0  1  -0.04230308  0.10605661  0.89099728  1
  Li  Li1  1  0.00509694  0.61770749  0.49401407  1
  Be  Be2  1  0.50746376  0.24761590  0.66612342  1
  Be  Be3  1  0.49513774  0.00411882  0.40022289  1
  Br  Br4  1  0.76975604  -0.08167469  0.33118112  1
  Br  Br5  1  0.22056625  -0.18096953  0.13932834  1
  Br  Br6  1  0.25525185  0.34597605  0.76707035  1
  Br  Br7  1  0.78903050  0.44116935  0.88884686  1
