# generated using pymatgen
data_Na4IN
_symmetry_space_group_name_H-M   'P 1'
_cell_length_a   6.09833363
_cell_length_b   4.35342546
_cell_length_c   7.54791625
_cell_angle_alpha   89.99999374
_cell_angle_beta   90.00000090
_cell_angle_gamma   134.46615308
_symmetry_Int_Tables_number   1
_chemical_formula_structural   Na4IN
_chemical_formula_sum   'Na4 I1 N1'
_cell_volume   143.00900551
_cell_formula_units_Z   1
loop_
 _symmetry_equiv_pos_site_id
 _symmetry_equiv_pos_as_xyz
  1  'x, y, z'
loop_
 _atom_site_type_symbol
 _atom_site_label
 _atom_site_symmetry_multiplicity
 _atom_site_fract_x
 _atom_site_fract_y
 _atom_site_fract_z
 _atom_site_occupancy
  Na  Na0  1  0.73545111  0.49929844  0.67760953  1
  Na  Na1  1  0.73545053  0.49929703  0.32239029  1
  Na  Na2  1  0.23615579  0.50069642  0.32239827  1
  Na  Na3  1  0.23615632  0.50069765  0.67760161  1
  I  I4  1  0.73744412  0.00000698  0.00000017  1
  N  N5  1  0.23600880  0.00000348  0.50000014  1
