# generated using pymatgen
data_KBrCl6
_symmetry_space_group_name_H-M   'P 1'
_cell_length_a   7.91597667
_cell_length_b   7.91597664
_cell_length_c   9.07270694
_cell_angle_alpha   89.99992114
_cell_angle_beta   89.99992645
_cell_angle_gamma   90.00673580
_symmetry_Int_Tables_number   1
_chemical_formula_structural   KBrCl6
_chemical_formula_sum   'K2 Br2 Cl12'
_cell_volume   568.52018616
_cell_formula_units_Z   2
loop_
 _symmetry_equiv_pos_site_id
 _symmetry_equiv_pos_as_xyz
  1  'x, y, z'
loop_
 _atom_site_type_symbol
 _atom_site_label
 _atom_site_symmetry_multiplicity
 _atom_site_fract_x
 _atom_site_fract_y
 _atom_site_fract_z
 _atom_site_occupancy
  K  K0  1  -0.00000234  0.00000010  0.84350186  1
  K  K1  1  0.50000010  0.49999767  0.34350104  1
  Br  Br2  1  0.50000071  0.50000054  0.96825793  1
  Br  Br3  1  0.00000054  0.00000071  0.46825883  1
  Cl  Cl4  1  0.49999832  -0.00000196  0.81219514  1
  Cl  Cl5  1  -0.00000094  0.49999890  0.81217735  1
  Cl  Cl6  1  0.67692364  0.17556279  -0.00097346  1
  Cl  Cl7  1  0.17557991  0.32307037  -0.00096816  1
  Cl  Cl8  1  0.82442145  0.67692966  -0.00096828  1
  Cl  Cl9  1  0.32307898  0.82443986  -0.00097989  1
  Cl  Cl10  1  0.49999804  -0.00000168  0.31219572  1
  Cl  Cl11  1  -0.00000107  0.49999904  0.31217794  1
  Cl  Cl12  1  0.67556255  0.17692381  0.49902667  1
  Cl  Cl13  1  0.82307019  0.67557968  0.49903198  1
  Cl  Cl14  1  0.17692981  0.32442170  0.49903184  1
  Cl  Cl15  1  0.32444010  0.82307882  0.49902025  1
