# generated using pymatgen
data_Li2BI
_symmetry_space_group_name_H-M   'P 1'
_cell_length_a   5.56181863
_cell_length_b   5.45294277
_cell_length_c   5.46427157
_cell_angle_alpha   89.99999952
_cell_angle_beta   90.00001025
_cell_angle_gamma   90.00038967
_symmetry_Int_Tables_number   1
_chemical_formula_structural   Li2BI
_chemical_formula_sum   'Li4 B2 I2'
_cell_volume   165.72195129
_cell_formula_units_Z   2
loop_
 _symmetry_equiv_pos_site_id
 _symmetry_equiv_pos_as_xyz
  1  'x, y, z'
loop_
 _atom_site_type_symbol
 _atom_site_label
 _atom_site_symmetry_multiplicity
 _atom_site_fract_x
 _atom_site_fract_y
 _atom_site_fract_z
 _atom_site_occupancy
  Li  Li0  1  0.50000028  0.50000006  0.52656578  1
  Li  Li1  1  -0.00000002  0.49999993  0.04856606  1
  Li  Li2  1  0.49999984  0.00000001  0.02656896  1
  Li  Li3  1  -0.00000003  -0.00000003  0.54857483  1
  B  B4  1  -0.00000006  -0.00000041  0.04307787  1
  B  B5  1  0.00000005  0.50000035  0.54307064  1
  I  I6  1  0.49999998  0.50000003  0.02614058  1
  I  I7  1  0.49999996  0.00000007  0.52614149  1
