# generated using pymatgen
data_Li4CCl6
_symmetry_space_group_name_H-M   'P 1'
_cell_length_a   6.10620692
_cell_length_b   6.10619989
_cell_length_c   6.61678283
_cell_angle_alpha   89.99889935
_cell_angle_beta   90.00094642
_cell_angle_gamma   120.00336002
_symmetry_Int_Tables_number   1
_chemical_formula_structural   Li4CCl6
_chemical_formula_sum   'Li4 C1 Cl6'
_cell_volume   213.65120250
_cell_formula_units_Z   1
loop_
 _symmetry_equiv_pos_site_id
 _symmetry_equiv_pos_as_xyz
  1  'x, y, z'
loop_
 _atom_site_type_symbol
 _atom_site_label
 _atom_site_symmetry_multiplicity
 _atom_site_fract_x
 _atom_site_fract_y
 _atom_site_fract_z
 _atom_site_occupancy
  Li  Li0  1  0.33335770  0.66669196  0.04377559  1
  Li  Li1  1  0.66668467  0.33334766  0.43650946  1
  Li  Li2  1  0.66668687  0.33336621  0.04316698  1
  Li  Li3  1  0.33335038  0.66667345  0.43711657  1
  C  C4  1  -0.00000897  -0.00000769  0.87066459  1
  Cl  Cl5  1  0.29047527  0.29093812  0.74787057  1
  Cl  Cl6  1  0.70903670  -0.00048164  0.74786759  1
  Cl  Cl7  1  0.00044043  0.70949742  0.74787692  1
  Cl  Cl8  1  0.64928711  0.64937264  0.24588978  1
  Cl  Cl9  1  0.35061703  -0.00009837  0.24588272  1
  Cl  Cl10  1  0.00007282  0.35070024  0.24587922  1
