# generated using pymatgen
data_KS4I3
_symmetry_space_group_name_H-M   'P 1'
_cell_length_a   6.08987471
_cell_length_b   6.08984470
_cell_length_c   6.08986204
_cell_angle_alpha   90.00000151
_cell_angle_beta   90.00000159
_cell_angle_gamma   90.00000151
_symmetry_Int_Tables_number   1
_chemical_formula_structural   KS4I3
_chemical_formula_sum   'K1 S4 I3'
_cell_volume   225.85100586
_cell_formula_units_Z   1
loop_
 _symmetry_equiv_pos_site_id
 _symmetry_equiv_pos_as_xyz
  1  'x, y, z'
loop_
 _atom_site_type_symbol
 _atom_site_label
 _atom_site_symmetry_multiplicity
 _atom_site_fract_x
 _atom_site_fract_y
 _atom_site_fract_z
 _atom_site_occupancy
  K  K0  1  0.50000000  0.50000000  0.50000000  1
  S  S1  1  -0.00000000  0.00000000  -0.00000000  1
  S  S2  1  -0.00000000  0.50000000  -0.00000000  1
  S  S3  1  -0.00000000  -0.00000000  0.50000000  1
  S  S4  1  0.50000000  0.00000000  0.00000000  1
  I  I5  1  0.50000000  -0.00000000  0.50000000  1
  I  I6  1  0.00000000  0.50000000  0.50000000  1
  I  I7  1  0.50000000  0.50000000  0.00000000  1
