# generated using pymatgen
data_LiICl2
_symmetry_space_group_name_H-M   'P 1'
_cell_length_a   7.54657909
_cell_length_b   7.54657915
_cell_length_c   7.54657912
_cell_angle_alpha   90.00000389
_cell_angle_beta   90.00000379
_cell_angle_gamma   90.00000372
_symmetry_Int_Tables_number   1
_chemical_formula_structural   LiICl2
_chemical_formula_sum   'Li4 I4 Cl8'
_cell_volume   429.78414366
_cell_formula_units_Z   4
loop_
 _symmetry_equiv_pos_site_id
 _symmetry_equiv_pos_as_xyz
  1  'x, y, z'
loop_
 _atom_site_type_symbol
 _atom_site_label
 _atom_site_symmetry_multiplicity
 _atom_site_fract_x
 _atom_site_fract_y
 _atom_site_fract_z
 _atom_site_occupancy
  Li  Li0  1  0.50000000  0.00000000  -0.00000000  1
  Li  Li1  1  0.00000000  -0.00000000  0.50000000  1
  Li  Li2  1  0.00000000  0.50000000  -0.00000000  1
  Li  Li3  1  0.50000000  0.50000000  0.50000000  1
  I  I4  1  0.50000000  -0.00000001  0.50000000  1
  I  I5  1  0.00000000  -0.00000001  -0.00000000  1
  I  I6  1  0.50000000  0.50000001  -0.00000000  1
  I  I7  1  0.00000000  0.50000001  0.50000000  1
  Cl  Cl8  1  0.25000001  0.25000000  0.74999999  1
  Cl  Cl9  1  0.74999999  0.25000000  0.25000001  1
  Cl  Cl10  1  0.74999999  0.75000000  0.74999999  1
  Cl  Cl11  1  0.25000002  0.75000000  0.25000001  1
  Cl  Cl12  1  0.74999998  0.25000000  0.74999999  1
  Cl  Cl13  1  0.25000001  0.25000000  0.25000001  1
  Cl  Cl14  1  0.74999999  0.75000000  0.25000000  1
  Cl  Cl15  1  0.25000001  0.75000000  0.74999999  1
