# generated using pymatgen
data_KS7N4
_symmetry_space_group_name_H-M   'P 1'
_cell_length_a   5.43521513
_cell_length_b   5.43521523
_cell_length_c   8.34853579
_cell_angle_alpha   89.99995283
_cell_angle_beta   89.99995325
_cell_angle_gamma   120.00051623
_symmetry_Int_Tables_number   1
_chemical_formula_structural   KS7N4
_chemical_formula_sum   'K1 S7 N4'
_cell_volume   213.58569912
_cell_formula_units_Z   1
loop_
 _symmetry_equiv_pos_site_id
 _symmetry_equiv_pos_as_xyz
  1  'x, y, z'
loop_
 _atom_site_type_symbol
 _atom_site_label
 _atom_site_symmetry_multiplicity
 _atom_site_fract_x
 _atom_site_fract_y
 _atom_site_fract_z
 _atom_site_occupancy
  K  K0  1  -0.00000006  -0.00000002  0.50000041  1
  S  S1  1  0.00000107  0.00000039  0.00007300  1
  S  S2  1  0.65194406  0.65194631  0.16161031  1
  S  S3  1  -0.00000958  0.34806488  0.16159431  1
  S  S4  1  0.65185933  0.00000907  0.83842460  1
  S  S5  1  0.34812778  0.34812798  0.83840735  1
  S  S6  1  0.34806323  -0.00001050  0.16159496  1
  S  S7  1  0.00000572  0.65185876  0.83842405  1
  N  N8  1  0.66666612  0.33333382  0.50000260  1
  N  N9  1  0.33333380  0.66666615  0.50000260  1
  N  N10  1  0.66668998  0.33331603  -0.00006897  1
  N  N11  1  0.33331854  0.66668713  -0.00006523  1
