# generated using pymatgen
data_KSiCl2
_symmetry_space_group_name_H-M   'P 1'
_cell_length_a   5.66451250
_cell_length_b   5.66451325
_cell_length_c   8.34244794
_cell_angle_alpha   90.00439106
_cell_angle_beta   90.00451039
_cell_angle_gamma   90.00002298
_symmetry_Int_Tables_number   1
_chemical_formula_structural   KSiCl2
_chemical_formula_sum   'K2 Si2 Cl4'
_cell_volume   267.68167404
_cell_formula_units_Z   2
loop_
 _symmetry_equiv_pos_site_id
 _symmetry_equiv_pos_as_xyz
  1  'x, y, z'
loop_
 _atom_site_type_symbol
 _atom_site_label
 _atom_site_symmetry_multiplicity
 _atom_site_fract_x
 _atom_site_fract_y
 _atom_site_fract_z
 _atom_site_occupancy
  K  K0  1  0.49999560  0.50000416  0.49999998  1
  K  K1  1  0.00000420  -0.00000422  -0.00000002  1
  Si  Si2  1  0.50004154  0.49995817  0.00000002  1
  Si  Si3  1  -0.00004343  0.00004090  0.49999999  1
  Cl  Cl4  1  0.50005087  0.00000148  0.44874910  1
  Cl  Cl5  1  -0.00000168  0.49995211  0.55125089  1
  Cl  Cl6  1  0.50000153  0.00004900  0.94874911  1
  Cl  Cl7  1  -0.00004861  0.49999838  0.05125093  1
