# generated using pymatgen
data_LiBrN2
_symmetry_space_group_name_H-M   'P 1'
_cell_length_a   5.19205199
_cell_length_b   5.19205014
_cell_length_c   5.89397456
_cell_angle_alpha   90.00012962
_cell_angle_beta   90.00009034
_cell_angle_gamma   90.00002407
_symmetry_Int_Tables_number   1
_chemical_formula_structural   LiBrN2
_chemical_formula_sum   'Li2 Br2 N4'
_cell_volume   158.88619633
_cell_formula_units_Z   2
loop_
 _symmetry_equiv_pos_site_id
 _symmetry_equiv_pos_as_xyz
  1  'x, y, z'
loop_
 _atom_site_type_symbol
 _atom_site_label
 _atom_site_symmetry_multiplicity
 _atom_site_fract_x
 _atom_site_fract_y
 _atom_site_fract_z
 _atom_site_occupancy
  Li  Li0  1  0.49999998  0.49999999  0.49999925  1
  Li  Li1  1  0.00000014  -0.00000001  -0.00000003  1
  Br  Br2  1  -0.00000005  0.00000020  0.50000007  1
  Br  Br3  1  0.50000001  0.49999982  0.00000026  1
  N  N4  1  0.00000030  0.49999969  0.24927674  1
  N  N5  1  0.50000028  -0.00000064  0.75072362  1
  N  N6  1  -0.00000032  0.50000064  0.74927651  1
  N  N7  1  0.49999966  0.00000031  0.25072357  1
