# generated using pymatgen
data_Na7(BrO)3
_symmetry_space_group_name_H-M   'P 1'
_cell_length_a   9.45028763
_cell_length_b   9.45027935
_cell_length_c   6.89492338
_cell_angle_alpha   89.99998815
_cell_angle_beta   89.99998832
_cell_angle_gamma   120.01005727
_symmetry_Int_Tables_number   1
_chemical_formula_structural   Na7(BrO)3
_chemical_formula_sum   'Na14 Br6 O6'
_cell_volume   533.21913681
_cell_formula_units_Z   2
loop_
 _symmetry_equiv_pos_site_id
 _symmetry_equiv_pos_as_xyz
  1  'x, y, z'
loop_
 _atom_site_type_symbol
 _atom_site_label
 _atom_site_symmetry_multiplicity
 _atom_site_fract_x
 _atom_site_fract_y
 _atom_site_fract_z
 _atom_site_occupancy
  Na  Na0  1  0.82844069  0.63010480  0.49929019  1
  Na  Na1  1  0.36989295  0.19833705  0.49930058  1
  Na  Na2  1  0.80159286  0.17151861  0.49931560  1
  Na  Na3  1  0.19833631  0.36989425  -0.00069772  1
  Na  Na4  1  0.63010559  0.82844106  -0.00071189  1
  Na  Na5  1  0.17151816  0.80159139  -0.00068398  1
  Na  Na6  1  0.63010557  0.82844125  0.50071310  1
  Na  Na7  1  0.19833625  0.36989426  0.50069707  1
  Na  Na8  1  0.17151803  0.80159128  0.50068399  1
  Na  Na9  1  0.00001228  0.00001220  -0.00000057  1
  Na  Na10  1  0.00001228  0.00001220  0.49999946  1
  Na  Na11  1  0.36989297  0.19833699  0.00069876  1
  Na  Na12  1  0.82844088  0.63010477  0.00071103  1
  Na  Na13  1  0.80159274  0.17151848  0.00068441  1
  Br  Br14  1  0.00442519  0.47317934  0.74999998  1
  Br  Br15  1  0.52690082  0.53116483  0.75000003  1
  Br  Br16  1  0.46881254  0.99562346  0.74999998  1
  Br  Br17  1  0.47318191  0.00442938  0.24999998  1
  Br  Br18  1  0.53116739  0.52690057  0.25000003  1
  Br  Br19  1  0.99563081  0.46881707  0.24999998  1
  O  O20  1  0.80628696  0.00117075  0.75000020  1
  O  O21  1  -0.00113608  0.80506271  0.75000021  1
  O  O22  1  0.19493198  0.19377290  0.74999960  1
  O  O23  1  0.00116987  0.80628440  0.25000020  1
  O  O24  1  0.80506229  -0.00113530  0.25000020  1
  O  O25  1  0.19376875  0.19493129  0.24999959  1
