# generated using pymatgen
data_LiBrCl4
_symmetry_space_group_name_H-M   'P 1'
_cell_length_a   11.49513241
_cell_length_b   8.37410204
_cell_length_c   7.98255962
_cell_angle_alpha   90.00190133
_cell_angle_beta   84.47586938
_cell_angle_gamma   90.00207592
_symmetry_Int_Tables_number   1
_chemical_formula_structural   LiBrCl4
_chemical_formula_sum   'Li4 Br4 Cl16'
_cell_volume   764.84375295
_cell_formula_units_Z   4
loop_
 _symmetry_equiv_pos_site_id
 _symmetry_equiv_pos_as_xyz
  1  'x, y, z'
loop_
 _atom_site_type_symbol
 _atom_site_label
 _atom_site_symmetry_multiplicity
 _atom_site_fract_x
 _atom_site_fract_y
 _atom_site_fract_z
 _atom_site_occupancy
  Li  Li0  1  0.00002527  0.00009285  -0.00013455  1
  Li  Li1  1  -0.00001260  0.50011724  -0.00007283  1
  Li  Li2  1  -0.00001449  -0.00011954  0.50015727  1
  Li  Li3  1  0.00004490  0.49970332  0.49966339  1
  Br  Br4  1  0.16227703  0.37181246  0.19070973  1
  Br  Br5  1  0.83769921  0.62819018  0.80931342  1
  Br  Br6  1  0.16230804  0.12815679  0.69071586  1
  Br  Br7  1  0.83772071  0.87180624  0.30929779  1
  Cl  Cl8  1  0.64399827  0.15395505  0.77674170  1
  Cl  Cl9  1  0.59763161  0.92207561  0.77523749  1
  Cl  Cl10  1  0.35601247  0.84600624  0.22330534  1
  Cl  Cl11  1  0.40234647  0.07797013  0.22479263  1
  Cl  Cl12  1  0.35600714  0.65400443  0.72329585  1
  Cl  Cl13  1  0.40234911  0.42202810  0.72478460  1
  Cl  Cl14  1  0.64401233  0.34605093  0.27675269  1
  Cl  Cl15  1  0.59761362  0.57795890  0.27526684  1
  Cl  Cl16  1  0.33137513  0.48833217  0.24094326  1
  Cl  Cl17  1  0.04305050  0.75101422  -0.11579597  1
  Cl  Cl18  1  0.95689172  0.24921165  0.11584642  1
  Cl  Cl19  1  0.66869374  0.51165474  0.75917545  1
  Cl  Cl20  1  0.33132758  0.01170710  0.74091592  1
  Cl  Cl21  1  0.04307429  0.74901068  0.38416899  1
  Cl  Cl22  1  0.95690295  0.25085025  0.61580722  1
  Cl  Cl23  1  0.66866499  -0.01158974  0.25911149  1
