# generated using pymatgen
data_K(SI)5
_symmetry_space_group_name_H-M   'P 1'
_cell_length_a   5.65394850
_cell_length_b   6.29836709
_cell_length_c   13.38836028
_cell_angle_alpha   71.41648801
_cell_angle_beta   97.34178147
_cell_angle_gamma   88.52265544
_symmetry_Int_Tables_number   1
_chemical_formula_structural   K(SI)5
_chemical_formula_sum   'K1 S5 I5'
_cell_volume   447.08155126
_cell_formula_units_Z   1
loop_
 _symmetry_equiv_pos_site_id
 _symmetry_equiv_pos_as_xyz
  1  'x, y, z'
loop_
 _atom_site_type_symbol
 _atom_site_label
 _atom_site_symmetry_multiplicity
 _atom_site_fract_x
 _atom_site_fract_y
 _atom_site_fract_z
 _atom_site_occupancy
  K  K0  1  0.55192295  0.30274093  0.46295054  1
  S  S1  1  -0.00780430  -0.09731108  0.32569401  1
  S  S2  1  0.79406522  0.92119299  0.94800215  1
  S  S3  1  0.06820773  0.92612554  0.06571908  1
  S  S4  1  0.87243914  0.24617587  0.85337419  1
  S  S5  1  0.16633361  0.23327668  -0.02035633  1
  I  I6  1  0.48257026  0.16720800  0.72546604  1
  I  I7  1  0.06367119  0.68065401  0.77028806  1
  I  I8  1  0.03485163  -0.22192295  0.53157460  1
  I  I9  1  0.48162355  -0.07756490  0.29830325  1
  I  I10  1  -0.00788097  0.41942493  0.30352573  1
