# generated using pymatgen
data_Li3BeBr4
_symmetry_space_group_name_H-M   'P 1'
_cell_length_a   6.38802601
_cell_length_b   6.38802320
_cell_length_c   5.59154453
_cell_angle_alpha   90.00000158
_cell_angle_beta   90.00000048
_cell_angle_gamma   89.99999599
_symmetry_Int_Tables_number   1
_chemical_formula_structural   Li3BeBr4
_chemical_formula_sum   'Li3 Be1 Br4'
_cell_volume   228.17336591
_cell_formula_units_Z   1
loop_
 _symmetry_equiv_pos_site_id
 _symmetry_equiv_pos_as_xyz
  1  'x, y, z'
loop_
 _atom_site_type_symbol
 _atom_site_label
 _atom_site_symmetry_multiplicity
 _atom_site_fract_x
 _atom_site_fract_y
 _atom_site_fract_z
 _atom_site_occupancy
  Li  Li0  1  -0.00000007  0.50000005  0.00000000  1
  Li  Li1  1  0.50000001  0.50000002  0.00000005  1
  Li  Li2  1  0.50000005  -0.00000008  -0.00000000  1
  Be  Be3  1  -0.00000008  -0.00000008  -0.00000001  1
  Br  Br4  1  0.78407144  0.78407142  0.78641011  1
  Br  Br5  1  0.21592861  0.21592865  0.78641025  1
  Br  Br6  1  0.78407145  0.21592861  0.21358980  1
  Br  Br7  1  0.21592859  0.78407142  0.21358979  1
