# generated using pymatgen
data_Li7P2Cl3
_symmetry_space_group_name_H-M   'P 1'
_cell_length_a   7.74874319
_cell_length_b   4.13715494
_cell_length_c   12.20689455
_cell_angle_alpha   90.00005192
_cell_angle_beta   89.99973309
_cell_angle_gamma   89.99999945
_symmetry_Int_Tables_number   1
_chemical_formula_structural   Li7P2Cl3
_chemical_formula_sum   'Li14 P4 Cl6'
_cell_volume   391.32558754
_cell_formula_units_Z   2
loop_
 _symmetry_equiv_pos_site_id
 _symmetry_equiv_pos_as_xyz
  1  'x, y, z'
loop_
 _atom_site_type_symbol
 _atom_site_label
 _atom_site_symmetry_multiplicity
 _atom_site_fract_x
 _atom_site_fract_y
 _atom_site_fract_z
 _atom_site_occupancy
  Li  Li0  1  -0.00000225  0.49912725  0.63224729  1
  Li  Li1  1  -0.00000328  0.50087231  0.36775253  1
  Li  Li2  1  0.49999966  -0.00000016  0.50000052  1
  Li  Li3  1  0.25681340  0.00013790  0.38182332  1
  Li  Li4  1  0.74318634  -0.00013563  0.61817655  1
  Li  Li5  1  0.74318556  0.00013478  0.38182026  1
  Li  Li6  1  0.25681314  -0.00013786  0.61818007  1
  Li  Li7  1  0.00000144  0.00000038  -0.00000030  1
  Li  Li8  1  0.75681420  -0.00013857  0.88182336  1
  Li  Li9  1  0.24318713  0.00013721  0.11817686  1
  Li  Li10  1  0.75681462  0.00013873  0.11817969  1
  Li  Li11  1  0.24318733  -0.00013639  0.88181992  1
  Li  Li12  1  0.49999538  0.49912704  0.86775227  1
  Li  Li13  1  0.49999584  0.50087321  0.13224796  1
  P  P14  1  0.65248663  0.49999968  0.49999933  1
  P  P15  1  0.34751464  0.49999987  0.50000064  1
  P  P16  1  0.84751684  0.50000019  0.00000060  1
  P  P17  1  0.15248893  0.50000033  -0.00000066  1
  Cl  Cl18  1  0.00000021  -0.00000070  0.49999996  1
  Cl  Cl19  1  0.49999964  0.00037772  0.25272944  1
  Cl  Cl20  1  0.50000088  -0.00037809  0.74727043  1
  Cl  Cl21  1  0.50000208  0.00000100  -0.00000004  1
  Cl  Cl22  1  0.00000122  0.00037818  0.24727068  1
  Cl  Cl23  1  0.00000040  -0.00037838  0.75272931  1
