# generated using pymatgen
data_Li(P3O)2
_symmetry_space_group_name_H-M   'P 1'
_cell_length_a   7.58503969
_cell_length_b   7.26151485
_cell_length_c   6.91397216
_cell_angle_alpha   74.66794154
_cell_angle_beta   111.14785983
_cell_angle_gamma   111.35712929
_symmetry_Int_Tables_number   1
_chemical_formula_structural   Li(P3O)2
_chemical_formula_sum   'Li2 P12 O4'
_cell_volume   326.87505484
_cell_formula_units_Z   2
loop_
 _symmetry_equiv_pos_site_id
 _symmetry_equiv_pos_as_xyz
  1  'x, y, z'
loop_
 _atom_site_type_symbol
 _atom_site_label
 _atom_site_symmetry_multiplicity
 _atom_site_fract_x
 _atom_site_fract_y
 _atom_site_fract_z
 _atom_site_occupancy
  Li  Li0  1  0.26444386  -0.02029323  0.06063878  1
  Li  Li1  1  0.03102967  -0.27401496  0.57148953  1
  P  P2  1  0.45361333  0.59625727  0.65443560  1
  P  P3  1  0.06336925  0.33049035  0.59361197  1
  P  P4  1  0.58303326  -0.07855770  0.68645052  1
  P  P5  1  0.35353904  0.24441358  0.75805006  1
  P  P6  1  0.32797202  0.04946795  0.55152741  1
  P  P7  1  0.76609292  0.54037300  0.77138625  1
  P  P8  1  0.73627065  0.63516410  0.25035059  1
  P  P9  1  0.40185821  0.28084157  0.26557849  1
  P  P10  1  -0.06039755  0.65553039  0.08320744  1
  P  P11  1  0.36196059  0.55275676  0.29820057  1
  P  P12  1  0.04845492  0.38777644  0.24776265  1
  P  P13  1  0.66909478  0.91949333  0.05135527  1
  O  O14  1  0.63832107  0.37225322  0.27849561  1
  O  O15  1  0.50280243  0.94155348  0.11144642  1
  O  O16  1  0.20066644  0.55811998  0.65599904  1
  O  O17  1  0.65787511  0.30837447  0.80873304  1
