# generated using pymatgen
data_NaBr2Cl
_symmetry_space_group_name_H-M   'P 1'
_cell_length_a   7.00322335
_cell_length_b   7.01104447
_cell_length_c   12.96270591
_cell_angle_alpha   89.78477259
_cell_angle_beta   89.68539438
_cell_angle_gamma   90.01237213
_symmetry_Int_Tables_number   1
_chemical_formula_structural   NaBr2Cl
_chemical_formula_sum   'Na4 Br8 Cl4'
_cell_volume   636.45359536
_cell_formula_units_Z   4
loop_
 _symmetry_equiv_pos_site_id
 _symmetry_equiv_pos_as_xyz
  1  'x, y, z'
loop_
 _atom_site_type_symbol
 _atom_site_label
 _atom_site_symmetry_multiplicity
 _atom_site_fract_x
 _atom_site_fract_y
 _atom_site_fract_z
 _atom_site_occupancy
  Na  Na0  1  -0.00009757  -0.00016036  0.19137040  1
  Na  Na1  1  0.50002528  0.49987796  0.19591068  1
  Na  Na2  1  0.50020667  0.50031938  0.69133741  1
  Na  Na3  1  0.00042228  0.00046810  0.69585027  1
  Br  Br4  1  0.74968311  0.24850394  0.35039875  1
  Br  Br5  1  0.24832422  0.74987505  0.35036909  1
  Br  Br6  1  0.49959110  -0.00021679  -0.09448541  1
  Br  Br7  1  -0.00043040  0.49988172  -0.09449012  1
  Br  Br8  1  0.25001025  0.25032296  0.85039237  1
  Br  Br9  1  0.74871675  0.74903434  0.85028997  1
  Br  Br10  1  -0.00060526  0.49966635  0.40558546  1
  Br  Br11  1  0.49955395  -0.00053149  0.40558205  1
  Cl  Cl12  1  0.25130391  0.25055272  0.13900600  1
  Cl  Cl13  1  0.74991602  0.74921155  0.13876609  1
  Cl  Cl14  1  0.75236236  0.25094049  0.63886409  1
  Cl  Cl15  1  0.25101734  0.75225406  0.63877960  1
