# generated using pymatgen
data_Na2CI
_symmetry_space_group_name_H-M   'P 1'
_cell_length_a   6.11842212
_cell_length_b   6.11259837
_cell_length_c   6.28325113
_cell_angle_alpha   90.00000012
_cell_angle_beta   90.00000048
_cell_angle_gamma   89.99999902
_symmetry_Int_Tables_number   1
_chemical_formula_structural   Na2CI
_chemical_formula_sum   'Na4 C2 I2'
_cell_volume   234.99018130
_cell_formula_units_Z   2
loop_
 _symmetry_equiv_pos_site_id
 _symmetry_equiv_pos_as_xyz
  1  'x, y, z'
loop_
 _atom_site_type_symbol
 _atom_site_label
 _atom_site_symmetry_multiplicity
 _atom_site_fract_x
 _atom_site_fract_y
 _atom_site_fract_z
 _atom_site_occupancy
  Na  Na0  1  0.50000001  -0.00000001  0.49952647  1
  Na  Na1  1  -0.00000002  0.50000002  0.50047353  1
  Na  Na2  1  0.50000000  0.50000000  0.92274769  1
  Na  Na3  1  0.00000000  0.00000000  0.07725231  1
  C  C4  1  0.50000001  0.50000001  0.50803629  1
  C  C5  1  -0.00000001  -0.00000001  0.49196371  1
  I  I6  1  0.00000000  0.50000000  0.00111183  1
  I  I7  1  0.50000000  -0.00000000  0.99888817  1
