# generated using pymatgen
data_Li3SiBr4
_symmetry_space_group_name_H-M   'P 1'
_cell_length_a   5.98331070
_cell_length_b   4.68146052
_cell_length_c   8.39138192
_cell_angle_alpha   107.00424961
_cell_angle_beta   103.41765675
_cell_angle_gamma   93.50875611
_symmetry_Int_Tables_number   1
_chemical_formula_structural   Li3SiBr4
_chemical_formula_sum   'Li3 Si1 Br4'
_cell_volume   216.52229957
_cell_formula_units_Z   1
loop_
 _symmetry_equiv_pos_site_id
 _symmetry_equiv_pos_as_xyz
  1  'x, y, z'
loop_
 _atom_site_type_symbol
 _atom_site_label
 _atom_site_symmetry_multiplicity
 _atom_site_fract_x
 _atom_site_fract_y
 _atom_site_fract_z
 _atom_site_occupancy
  Li  Li0  1  0.59957967  0.01629797  -0.07043400  1
  Li  Li1  1  0.08342539  0.58020142  -0.08899759  1
  Li  Li2  1  0.56086999  0.50466269  0.28314665  1
  Si  Si3  1  0.39276640  0.63471433  0.59892827  1
  Br  Br4  1  0.23796282  0.14646631  0.02027244  1
  Br  Br5  1  -0.02175483  0.52991075  0.57370927  1
  Br  Br6  1  0.38917208  -0.02160872  0.43607362  1
  Br  Br7  1  -0.24202152  -0.39064475  0.05930897  1
