# generated using pymatgen
data_Na3SiCl4
_symmetry_space_group_name_H-M   'P 1'
_cell_length_a   10.00682995
_cell_length_b   9.64671521
_cell_length_c   4.65097432
_cell_angle_alpha   85.04076340
_cell_angle_beta   93.98925429
_cell_angle_gamma   94.99269855
_symmetry_Int_Tables_number   1
_chemical_formula_structural   Na3SiCl4
_chemical_formula_sum   'Na6 Si2 Cl8'
_cell_volume   444.72320652
_cell_formula_units_Z   2
loop_
 _symmetry_equiv_pos_site_id
 _symmetry_equiv_pos_as_xyz
  1  'x, y, z'
loop_
 _atom_site_type_symbol
 _atom_site_label
 _atom_site_symmetry_multiplicity
 _atom_site_fract_x
 _atom_site_fract_y
 _atom_site_fract_z
 _atom_site_occupancy
  Na  Na0  1  0.78877783  0.13804493  0.02032412  1
  Na  Na1  1  0.73858481  0.79412412  0.06555447  1
  Na  Na2  1  0.47653770  -0.00883460  0.47763744  1
  Na  Na3  1  0.28877427  0.63806241  0.02032134  1
  Na  Na4  1  0.23860993  0.29413310  0.06554365  1
  Na  Na5  1  -0.02346608  0.49115369  0.47761134  1
  Si  Si6  1  0.05380222  -0.01316102  0.02528065  1
  Si  Si7  1  0.55377998  0.48683525  0.02523342  1
  Cl  Cl8  1  0.68491974  0.51918264  0.42760906  1
  Cl  Cl9  1  0.18491439  0.01917425  0.42760930  1
  Cl  Cl10  1  0.25151575  0.47344973  0.53861642  1
  Cl  Cl11  1  0.75151482  -0.02657478  0.53864695  1
  Cl  Cl12  1  0.53416769  0.24539648  0.05434593  1
  Cl  Cl13  1  0.47170618  0.85181717  0.00255024  1
  Cl  Cl14  1  0.03415080  0.74539498  0.05437036  1
  Cl  Cl15  1  -0.02829003  0.35180165  0.00254176  1
