# generated using pymatgen
data_Na4SBr3
_symmetry_space_group_name_H-M   'P 1'
_cell_length_a   4.17813544
_cell_length_b   4.17813547
_cell_length_c   10.79568369
_cell_angle_alpha   90.00001301
_cell_angle_beta   90.00000807
_cell_angle_gamma   90.00000141
_symmetry_Int_Tables_number   1
_chemical_formula_structural   Na4SBr3
_chemical_formula_sum   'Na4 S1 Br3'
_cell_volume   188.45826246
_cell_formula_units_Z   1
loop_
 _symmetry_equiv_pos_site_id
 _symmetry_equiv_pos_as_xyz
  1  'x, y, z'
loop_
 _atom_site_type_symbol
 _atom_site_label
 _atom_site_symmetry_multiplicity
 _atom_site_fract_x
 _atom_site_fract_y
 _atom_site_fract_z
 _atom_site_occupancy
  Na  Na0  1  0.00000002  0.49999987  0.71901279  1
  Na  Na1  1  0.50000020  -0.00000002  0.28098720  1
  Na  Na2  1  0.49999958  0.50000038  0.50000000  1
  Na  Na3  1  0.50000021  0.49999976  0.00000000  1
  S  S4  1  -0.00000087  0.00000076  0.50000000  1
  Br  Br5  1  0.00000037  0.49999985  0.25699376  1
  Br  Br6  1  0.50000016  -0.00000024  0.74300624  1
  Br  Br7  1  0.00000032  -0.00000035  0.00000000  1
