# generated using pymatgen
data_K3BrO
_symmetry_space_group_name_H-M   'P 1'
_cell_length_a   6.93891143
_cell_length_b   6.93891083
_cell_length_c   7.37686326
_cell_angle_alpha   90.00000433
_cell_angle_beta   90.00000818
_cell_angle_gamma   120.00060674
_symmetry_Int_Tables_number   1
_chemical_formula_structural   K3BrO
_chemical_formula_sum   'K6 Br2 O2'
_cell_volume   307.59718770
_cell_formula_units_Z   2
loop_
 _symmetry_equiv_pos_site_id
 _symmetry_equiv_pos_as_xyz
  1  'x, y, z'
loop_
 _atom_site_type_symbol
 _atom_site_label
 _atom_site_symmetry_multiplicity
 _atom_site_fract_x
 _atom_site_fract_y
 _atom_site_fract_z
 _atom_site_occupancy
  K  K0  1  0.50004514  0.49995397  0.89711425  1
  K  K1  1  -0.00009360  0.49995437  0.89711930  1
  K  K2  1  0.50004643  0.00009358  0.89711924  1
  K  K3  1  0.49995560  0.50004539  0.39711509  1
  K  K4  1  0.49995423  -0.00009226  0.39712001  1
  K  K5  1  0.00009239  0.50004512  0.39712015  1
  Br  Br6  1  0.00000145  -0.00000189  0.89350160  1
  Br  Br7  1  -0.00000175  0.00000155  0.39350223  1
  O  O8  1  0.33333362  0.66666662  0.64648753  1
  O  O9  1  0.66666650  0.33333355  0.14648902  1
