# generated using pymatgen
data_LiBr2N
_symmetry_space_group_name_H-M   'P 1'
_cell_length_a   4.38652611
_cell_length_b   4.38652118
_cell_length_c   6.55959144
_cell_angle_alpha   93.27273352
_cell_angle_beta   86.72723020
_cell_angle_gamma   121.22523341
_symmetry_Int_Tables_number   1
_chemical_formula_structural   LiBr2N
_chemical_formula_sum   'Li1 Br2 N1'
_cell_volume   107.70075531
_cell_formula_units_Z   1
loop_
 _symmetry_equiv_pos_site_id
 _symmetry_equiv_pos_as_xyz
  1  'x, y, z'
loop_
 _atom_site_type_symbol
 _atom_site_label
 _atom_site_symmetry_multiplicity
 _atom_site_fract_x
 _atom_site_fract_y
 _atom_site_fract_z
 _atom_site_occupancy
  Li  Li0  1  0.13922708  -0.13922780  0.68105444  1
  Br  Br1  1  0.47823474  0.52176481  0.61611121  1
  Br  Br2  1  0.28489549  0.71510569  0.20677623  1
  N  N3  1  0.15319825  0.84680175  -0.00394188  1
