# generated using pymatgen
data_Li4I2N3
_symmetry_space_group_name_H-M   'P 1'
_cell_length_a   6.89943716
_cell_length_b   5.78270834
_cell_length_c   3.92255624
_cell_angle_alpha   71.26301616
_cell_angle_beta   103.68766839
_cell_angle_gamma   90.11336403
_symmetry_Int_Tables_number   1
_chemical_formula_structural   Li4I2N3
_chemical_formula_sum   'Li4 I2 N3'
_cell_volume   143.53001270
_cell_formula_units_Z   1
loop_
 _symmetry_equiv_pos_site_id
 _symmetry_equiv_pos_as_xyz
  1  'x, y, z'
loop_
 _atom_site_type_symbol
 _atom_site_label
 _atom_site_symmetry_multiplicity
 _atom_site_fract_x
 _atom_site_fract_y
 _atom_site_fract_z
 _atom_site_occupancy
  Li  Li0  1  0.09697171  0.48736715  0.42510413  1
  Li  Li1  1  0.70431783  -0.03096925  0.99778088  1
  Li  Li2  1  0.78247335  0.69717870  0.66862425  1
  Li  Li3  1  0.38976177  0.86089708  0.41523735  1
  I  I4  1  0.12440617  -0.04194420  -0.23996282  1
  I  I5  1  0.55766805  0.39828170  0.23082340  1
  N  N6  1  -0.21074128  0.58408224  0.22445770  1
  N  N7  1  0.62426776  0.05581916  0.41887708  1
  N  N8  1  0.43087464  0.48928742  -0.40147067  1
