# generated using pymatgen
data_Na4Si8C3
_symmetry_space_group_name_H-M   'P 1'
_cell_length_a   4.70330845
_cell_length_b   4.72150204
_cell_length_c   11.24606499
_cell_angle_alpha   89.99815220
_cell_angle_beta   90.00148883
_cell_angle_gamma   93.38044659
_symmetry_Int_Tables_number   1
_chemical_formula_structural   Na4Si8C3
_chemical_formula_sum   'Na4 Si8 C3'
_cell_volume   249.30322989
_cell_formula_units_Z   1
loop_
 _symmetry_equiv_pos_site_id
 _symmetry_equiv_pos_as_xyz
  1  'x, y, z'
loop_
 _atom_site_type_symbol
 _atom_site_label
 _atom_site_symmetry_multiplicity
 _atom_site_fract_x
 _atom_site_fract_y
 _atom_site_fract_z
 _atom_site_occupancy
  Na  Na0  1  0.49999698  0.00000228  0.24935444  1
  Na  Na1  1  -0.00000479  0.50000406  0.29089886  1
  Na  Na2  1  0.50000758  0.00000509  0.76120123  1
  Na  Na3  1  0.00000539  0.50000422  0.81400739  1
  Si  Si4  1  0.69123455  0.21045878  0.48055858  1
  Si  Si5  1  0.81242733  0.31156187  0.05686034  1
  Si  Si6  1  0.23098526  0.33004387  0.58595765  1
  Si  Si7  1  0.68407232  0.81778995  -0.00770688  1
  Si  Si8  1  0.18762389  0.68838862  0.05686085  1
  Si  Si9  1  0.30876751  0.78953369  0.48055848  1
  Si  Si10  1  0.31592513  0.18221392  -0.00770650  1
  Si  Si11  1  0.76901065  0.66995192  0.58595778  1
  C  C12  1  -0.00000599  -0.00000215  0.54460666  1
  C  C13  1  -0.00001644  0.00002631  0.11753143  1
  C  C14  1  0.49997062  0.50001758  0.11605968  1
