# generated using pymatgen
data_LiIN2
_symmetry_space_group_name_H-M   'P 1'
_cell_length_a   5.78743132
_cell_length_b   7.65896375
_cell_length_c   8.10477140
_cell_angle_alpha   90.00015902
_cell_angle_beta   90.00000651
_cell_angle_gamma   89.94907418
_symmetry_Int_Tables_number   1
_chemical_formula_structural   LiIN2
_chemical_formula_sum   'Li4 I4 N8'
_cell_volume   359.24974000
_cell_formula_units_Z   4
loop_
 _symmetry_equiv_pos_site_id
 _symmetry_equiv_pos_as_xyz
  1  'x, y, z'
loop_
 _atom_site_type_symbol
 _atom_site_label
 _atom_site_symmetry_multiplicity
 _atom_site_fract_x
 _atom_site_fract_y
 _atom_site_fract_z
 _atom_site_occupancy
  Li  Li0  1  0.50046865  0.73234123  0.78117906  1
  Li  Li1  1  -0.00046342  0.76765843  0.28135159  1
  Li  Li2  1  0.00045634  0.23234166  0.78136504  1
  Li  Li3  1  0.49953798  0.26765763  0.28116724  1
  I  I4  1  0.50009712  0.90525258  0.28157413  1
  I  I5  1  -0.00009712  0.59474696  0.78138304  1
  I  I6  1  0.00009461  0.40525353  0.28137898  1
  I  I7  1  0.49990555  0.09474635  0.78157662  1
  N  N8  1  -0.00001335  0.05455011  0.57692010  1
  N  N9  1  0.49998272  0.55623679  -0.01279236  1
  N  N10  1  0.50001314  0.44558789  0.07682233  1
  N  N11  1  0.00001762  0.94390129  0.48729870  1
  N  N12  1  0.49998466  0.55440745  0.57682179  1
  N  N13  1  -0.00001523  0.05609640  -0.01269396  1
  N  N14  1  0.00001571  -0.05454542  0.07691647  1
  N  N15  1  0.50001503  0.44376713  0.48720838  1
