# generated using pymatgen
data_LiSiBr2
_symmetry_space_group_name_H-M   'P 1'
_cell_length_a   9.63154658
_cell_length_b   4.03307329
_cell_length_c   6.06187803
_cell_angle_alpha   89.99046052
_cell_angle_beta   80.64546152
_cell_angle_gamma   89.99980865
_symmetry_Int_Tables_number   1
_chemical_formula_structural   LiSiBr2
_chemical_formula_sum   'Li2 Si2 Br4'
_cell_volume   232.34059344
_cell_formula_units_Z   2
loop_
 _symmetry_equiv_pos_site_id
 _symmetry_equiv_pos_as_xyz
  1  'x, y, z'
loop_
 _atom_site_type_symbol
 _atom_site_label
 _atom_site_symmetry_multiplicity
 _atom_site_fract_x
 _atom_site_fract_y
 _atom_site_fract_z
 _atom_site_occupancy
  Li  Li0  1  0.31993409  0.74997896  0.40903792  1
  Li  Li1  1  0.66028639  0.25000763  0.04189167  1
  Si  Si2  1  -0.03707565  0.75004414  0.74250546  1
  Si  Si3  1  -0.05446133  0.24996037  0.53229837  1
  Br  Br4  1  0.69155110  0.25001646  0.61132882  1
  Br  Br5  1  0.19345270  0.74999533  0.81521899  1
  Br  Br6  1  0.81800343  0.74998844  0.10756136  1
  Br  Br7  1  0.40830926  0.25000867  0.20928773  1
