# generated using pymatgen
data_NaSBr6
_symmetry_space_group_name_H-M   'P 1'
_cell_length_a   5.87539075
_cell_length_b   5.87548779
_cell_length_c   5.87541601
_cell_angle_alpha   89.99997924
_cell_angle_beta   90.00005893
_cell_angle_gamma   90.00000551
_symmetry_Int_Tables_number   1
_chemical_formula_structural   NaSBr6
_chemical_formula_sum   'Na1 S1 Br6'
_cell_volume   202.82398259
_cell_formula_units_Z   1
loop_
 _symmetry_equiv_pos_site_id
 _symmetry_equiv_pos_as_xyz
  1  'x, y, z'
loop_
 _atom_site_type_symbol
 _atom_site_label
 _atom_site_symmetry_multiplicity
 _atom_site_fract_x
 _atom_site_fract_y
 _atom_site_fract_z
 _atom_site_occupancy
  Na  Na0  1  0.50000000  0.50000000  0.49999999  1
  S  S1  1  0.00000005  0.00000001  0.00000002  1
  Br  Br2  1  0.74693295  0.00000001  0.50000046  1
  Br  Br3  1  0.25306705  -0.00000001  0.49999952  1
  Br  Br4  1  -0.00000001  0.50000003  0.74693188  1
  Br  Br5  1  -0.00000000  0.49999994  0.25306813  1
  Br  Br6  1  0.49999998  0.25306504  -0.00000024  1
  Br  Br7  1  0.49999999  0.74693498  0.00000023  1
