# generated using pymatgen
data_Li5(SI2)2
_symmetry_space_group_name_H-M   'P 1'
_cell_length_a   10.51040449
_cell_length_b   10.51042399
_cell_length_c   7.37874537
_cell_angle_alpha   90.00108301
_cell_angle_beta   90.00024951
_cell_angle_gamma   90.04022454
_symmetry_Int_Tables_number   1
_chemical_formula_structural   Li5(SI2)2
_chemical_formula_sum   'Li10 S4 I8'
_cell_volume   815.12100182
_cell_formula_units_Z   2
loop_
 _symmetry_equiv_pos_site_id
 _symmetry_equiv_pos_as_xyz
  1  'x, y, z'
loop_
 _atom_site_type_symbol
 _atom_site_label
 _atom_site_symmetry_multiplicity
 _atom_site_fract_x
 _atom_site_fract_y
 _atom_site_fract_z
 _atom_site_occupancy
  Li  Li0  1  0.00002937  -0.00003058  0.00008704  1
  Li  Li1  1  0.85687799  0.35685570  0.04320404  1
  Li  Li2  1  0.14310513  0.35694319  0.04303681  1
  Li  Li3  1  0.85692392  0.64308016  0.04304902  1
  Li  Li4  1  0.14312596  0.64314774  0.04322920  1
  Li  Li5  1  0.49996979  0.50003019  0.00009142  1
  Li  Li6  1  0.64306802  0.14309122  0.95666725  1
  Li  Li7  1  0.64297327  0.85702407  0.95673323  1
  Li  Li8  1  0.35700256  0.14294983  0.95674373  1
  Li  Li9  1  0.35693034  0.85690864  0.95663943  1
  S  S10  1  0.00000404  0.50000272  -0.11411906  1
  S  S11  1  0.50002131  0.00002032  0.38691446  1
  S  S12  1  0.49999848  -0.00000324  0.11437883  1
  S  S13  1  -0.00003072  0.49997655  0.61336059  1
  I  I14  1  0.49996170  0.69953669  0.76420719  1
  I  I15  1  0.30041078  0.50013684  0.23578894  1
  I  I16  1  0.50003924  0.30046107  0.76429099  1
  I  I17  1  0.69958656  0.49986478  0.23570948  1
  I  I18  1  0.00008588  0.80041426  0.23578933  1
  I  I19  1  0.19954026  -0.00008807  0.76420745  1
  I  I20  1  -0.00008638  0.19958797  0.23570447  1
  I  I21  1  0.80046248  0.00008996  0.76428615  1
