# generated using pymatgen
data_LiBeBr2
_symmetry_space_group_name_H-M   'P 1'
_cell_length_a   5.92194290
_cell_length_b   5.92192624
_cell_length_c   6.33538832
_cell_angle_alpha   109.22206153
_cell_angle_beta   70.77799692
_cell_angle_gamma   103.28976110
_symmetry_Int_Tables_number   1
_chemical_formula_structural   LiBeBr2
_chemical_formula_sum   'Li2 Be2 Br4'
_cell_volume   196.24795027
_cell_formula_units_Z   2
loop_
 _symmetry_equiv_pos_site_id
 _symmetry_equiv_pos_as_xyz
  1  'x, y, z'
loop_
 _atom_site_type_symbol
 _atom_site_label
 _atom_site_symmetry_multiplicity
 _atom_site_fract_x
 _atom_site_fract_y
 _atom_site_fract_z
 _atom_site_occupancy
  Li  Li0  1  -0.15783876  0.00065018  0.09980225  1
  Li  Li1  1  -0.00065053  0.15783911  0.59980227  1
  Be  Be2  1  0.11352713  0.70557753  0.19453747  1
  Be  Be3  1  0.29441590  -0.11353270  0.69453961  1
  Br  Br4  1  0.56140454  0.14144751  0.53339931  1
  Br  Br5  1  0.21443595  0.55052194  0.42226038  1
  Br  Br6  1  0.44948277  0.78556597  0.92225888  1
  Br  Br7  1  0.85855632  0.43859712  0.03339984  1
