# generated using pymatgen
data_Li3(IO2)2
_symmetry_space_group_name_H-M   'P 1'
_cell_length_a   5.29693432
_cell_length_b   8.77687147
_cell_length_c   6.46280892
_cell_angle_alpha   90.00099887
_cell_angle_beta   90.00216763
_cell_angle_gamma   90.00613347
_symmetry_Int_Tables_number   1
_chemical_formula_structural   Li3(IO2)2
_chemical_formula_sum   'Li6 I4 O8'
_cell_volume   300.45929189
_cell_formula_units_Z   2
loop_
 _symmetry_equiv_pos_site_id
 _symmetry_equiv_pos_as_xyz
  1  'x, y, z'
loop_
 _atom_site_type_symbol
 _atom_site_label
 _atom_site_symmetry_multiplicity
 _atom_site_fract_x
 _atom_site_fract_y
 _atom_site_fract_z
 _atom_site_occupancy
  Li  Li0  1  0.07961031  0.28149607  -0.00002563  1
  Li  Li1  1  0.92039192  0.71850703  0.00001190  1
  Li  Li2  1  0.49999046  0.49999743  0.00001371  1
  Li  Li3  1  0.57961052  0.21845982  -0.00002492  1
  Li  Li4  1  0.42038474  0.78155172  0.00002371  1
  Li  Li5  1  0.00000695  -0.00000365  0.00001293  1
  I  I6  1  0.68703115  0.64231311  0.50000183  1
  I  I7  1  0.31294699  0.35768409  0.49999191  1
  I  I8  1  0.81291183  0.14227515  0.50000690  1
  I  I9  1  0.18711304  0.85772959  0.49999840  1
  O  O10  1  0.64806127  0.65595956  0.19102578  1
  O  O11  1  0.64807121  0.65594423  0.80901054  1
  O  O12  1  0.35193440  0.34404836  0.80904525  1
  O  O13  1  0.35192711  0.34403460  0.19092694  1
  O  O14  1  0.85190851  0.15590358  0.80894124  1
  O  O15  1  0.85189932  0.15590168  0.19101007  1
  O  O16  1  0.14810083  0.84409857  0.19100724  1
  O  O17  1  0.14809946  0.84409906  0.80902218  1
