# generated using pymatgen
data_LiBrCl
_symmetry_space_group_name_H-M   'P 1'
_cell_length_a   6.52614881
_cell_length_b   6.52614687
_cell_length_c   6.52614766
_cell_angle_alpha   90.00000275
_cell_angle_beta   90.00000241
_cell_angle_gamma   90.00000329
_symmetry_Int_Tables_number   1
_chemical_formula_structural   LiBrCl
_chemical_formula_sum   'Li4 Br4 Cl4'
_cell_volume   277.95258132
_cell_formula_units_Z   4
loop_
 _symmetry_equiv_pos_site_id
 _symmetry_equiv_pos_as_xyz
  1  'x, y, z'
loop_
 _atom_site_type_symbol
 _atom_site_label
 _atom_site_symmetry_multiplicity
 _atom_site_fract_x
 _atom_site_fract_y
 _atom_site_fract_z
 _atom_site_occupancy
  Li  Li0  1  0.74999875  0.24999873  0.75000379  1
  Li  Li1  1  0.25000125  0.75000128  0.75000380  1
  Li  Li2  1  0.74999875  0.75000128  0.24999621  1
  Li  Li3  1  0.25000125  0.24999872  0.24999620  1
  Br  Br4  1  0.50000000  0.50000000  0.50000001  1
  Br  Br5  1  0.00000000  0.00000001  0.50000000  1
  Br  Br6  1  -0.00000001  0.50000000  0.00000000  1
  Br  Br7  1  0.50000000  0.00000000  0.00000001  1
  Cl  Cl8  1  -0.00000000  -0.00000000  -0.00000000  1
  Cl  Cl9  1  0.50000000  0.00000000  0.50000000  1
  Cl  Cl10  1  0.00000000  0.49999999  0.50000000  1
  Cl  Cl11  1  0.50000000  0.49999999  -0.00000001  1
