# generated using pymatgen
data_Li5Br2N3
_symmetry_space_group_name_H-M   'P 1'
_cell_length_a   6.95344797
_cell_length_b   6.95344796
_cell_length_c   6.95344801
_cell_angle_alpha   90.00000236
_cell_angle_beta   90.00000171
_cell_angle_gamma   90.00000235
_symmetry_Int_Tables_number   1
_chemical_formula_structural   Li5Br2N3
_chemical_formula_sum   'Li10 Br4 N6'
_cell_volume   336.20226066
_cell_formula_units_Z   2
loop_
 _symmetry_equiv_pos_site_id
 _symmetry_equiv_pos_as_xyz
  1  'x, y, z'
loop_
 _atom_site_type_symbol
 _atom_site_label
 _atom_site_symmetry_multiplicity
 _atom_site_fract_x
 _atom_site_fract_y
 _atom_site_fract_z
 _atom_site_occupancy
  Li  Li0  1  0.00000003  0.00000001  -0.00000000  1
  Li  Li1  1  0.49999999  0.49999998  0.50000002  1
  Li  Li2  1  0.83235092  0.83235092  0.83235097  1
  Li  Li3  1  0.66764929  0.66764928  0.66764924  1
  Li  Li4  1  0.16764902  0.16764902  0.83235096  1
  Li  Li5  1  0.16764900  0.83235099  0.16764900  1
  Li  Li6  1  0.83235095  0.16764904  0.16764904  1
  Li  Li7  1  0.66764929  0.33235072  0.33235073  1
  Li  Li8  1  0.33235072  0.66764930  0.33235072  1
  Li  Li9  1  0.33235073  0.33235071  0.66764932  1
  Br  Br10  1  0.74999999  0.25000002  0.74999999  1
  Br  Br11  1  0.74999999  0.74999998  0.25000001  1
  Br  Br12  1  0.25000003  0.25000002  0.25000001  1
  Br  Br13  1  0.25000003  0.74999998  0.75000000  1
  N  N14  1  0.50000000  -0.00000000  0.50000000  1
  N  N15  1  0.00000001  0.50000000  0.00000000  1
  N  N16  1  0.00000001  0.00000001  0.50000001  1
  N  N17  1  0.50000000  0.50000000  -0.00000000  1
  N  N18  1  0.00000000  0.50000000  0.50000000  1
  N  N19  1  0.50000001  0.00000001  0.00000000  1
