# generated using pymatgen
data_Li5P3Br2
_symmetry_space_group_name_H-M   'P 1'
_cell_length_a   6.09989301
_cell_length_b   8.35667929
_cell_length_c   8.21631655
_cell_angle_alpha   87.82500513
_cell_angle_beta   77.77029058
_cell_angle_gamma   91.07634302
_symmetry_Int_Tables_number   1
_chemical_formula_structural   Li5P3Br2
_chemical_formula_sum   'Li10 P6 Br4'
_cell_volume   408.87154907
_cell_formula_units_Z   2
loop_
 _symmetry_equiv_pos_site_id
 _symmetry_equiv_pos_as_xyz
  1  'x, y, z'
loop_
 _atom_site_type_symbol
 _atom_site_label
 _atom_site_symmetry_multiplicity
 _atom_site_fract_x
 _atom_site_fract_y
 _atom_site_fract_z
 _atom_site_occupancy
  Li  Li0  1  0.12100445  0.27542532  0.96066407  1
  Li  Li1  1  0.91776563  0.03957896  0.84055859  1
  Li  Li2  1  0.40692584  0.51922349  0.39047687  1
  Li  Li3  1  0.54362626  0.19442602  0.45533186  1
  Li  Li4  1  0.01776760  0.58871554  0.67439760  1
  Li  Li5  1  0.61473671  0.39516001  0.96888473  1
  Li  Li6  1  0.48557441  0.76905520  0.78153288  1
  Li  Li7  1  0.50005529  -0.11032228  0.14849921  1
  Li  Li8  1  0.01097439  0.24951231  0.37113658  1
  Li  Li9  1  0.90084334  0.77448901  0.39309655  1
  P  P10  1  0.46166107  0.45419910  0.68994746  1
  P  P11  1  0.19308325  0.31238007  0.64215182  1
  P  P12  1  0.75699064  0.47726370  0.49539692  1
  P  P13  1  -0.01183785  -0.01732733  0.14720529  1
  P  P14  1  0.73768252  0.15372886  0.13689722  1
  P  P15  1  0.26952610  0.99873766  -0.05054627  1
  Br  Br16  1  0.24235139  0.45413039  0.15501849  1
  Br  Br17  1  0.78295216  0.67723878  -0.05421413  1
  Br  Br18  1  0.75359179  -0.00410133  0.59803168  1
  Br  Br19  1  0.29472502  0.79848654  0.45278789  1
