# generated using pymatgen
data_NaBrCl
_symmetry_space_group_name_H-M   'P 1'
_cell_length_a   5.80731436
_cell_length_b   5.80722386
_cell_length_c   5.54472160
_cell_angle_alpha   90.00015184
_cell_angle_beta   90.00061859
_cell_angle_gamma   120.19607578
_symmetry_Int_Tables_number   1
_chemical_formula_structural   NaBrCl
_chemical_formula_sum   'Na2 Br2 Cl2'
_cell_volume   161.61914710
_cell_formula_units_Z   2
loop_
 _symmetry_equiv_pos_site_id
 _symmetry_equiv_pos_as_xyz
  1  'x, y, z'
loop_
 _atom_site_type_symbol
 _atom_site_label
 _atom_site_symmetry_multiplicity
 _atom_site_fract_x
 _atom_site_fract_y
 _atom_site_fract_z
 _atom_site_occupancy
  Na  Na0  1  0.33351268  0.66650169  0.52332135  1
  Na  Na1  1  0.66651135  0.33351574  0.02331009  1
  Br  Br2  1  0.66717634  0.33277982  0.52353931  1
  Br  Br3  1  0.33278194  0.66719092  0.02355075  1
  Cl  Cl4  1  -0.00028050  0.00029975  0.52446416  1
  Cl  Cl5  1  0.00029818  -0.00028791  0.02447537  1
