# generated using pymatgen
data_KSi2I
_symmetry_space_group_name_H-M   'P 1'
_cell_length_a   4.97129910
_cell_length_b   4.97129917
_cell_length_c   11.30645619
_cell_angle_alpha   90.00000054
_cell_angle_beta   90.00001141
_cell_angle_gamma   87.35221275
_symmetry_Int_Tables_number   1
_chemical_formula_structural   KSi2I
_chemical_formula_sum   'K2 Si4 I2'
_cell_volume   279.12734967
_cell_formula_units_Z   2
loop_
 _symmetry_equiv_pos_site_id
 _symmetry_equiv_pos_as_xyz
  1  'x, y, z'
loop_
 _atom_site_type_symbol
 _atom_site_label
 _atom_site_symmetry_multiplicity
 _atom_site_fract_x
 _atom_site_fract_y
 _atom_site_fract_z
 _atom_site_occupancy
  K  K0  1  0.00000010  0.49999999  0.21221854  1
  K  K1  1  0.49999990  -0.00000000  0.78778145  1
  Si  Si2  1  0.00000006  -0.00000007  0.49999999  1
  Si  Si3  1  0.49999993  0.50000008  0.50000001  1
  Si  Si4  1  -0.00000006  0.49999994  0.51393814  1
  Si  Si5  1  0.50000005  0.00000005  0.48606186  1
  I  I6  1  -0.00000001  0.00000000  -0.00000000  1
  I  I7  1  0.50000002  0.50000000  0.00000000  1
