# generated using pymatgen
data_NaCI4
_symmetry_space_group_name_H-M   'P 1'
_cell_length_a   4.31689165
_cell_length_b   5.24831646
_cell_length_c   9.51590012
_cell_angle_alpha   89.96315776
_cell_angle_beta   90.16261482
_cell_angle_gamma   88.18769808
_symmetry_Int_Tables_number   1
_chemical_formula_structural   NaCI4
_chemical_formula_sum   'Na1 C1 I4'
_cell_volume   215.48739935
_cell_formula_units_Z   1
loop_
 _symmetry_equiv_pos_site_id
 _symmetry_equiv_pos_as_xyz
  1  'x, y, z'
loop_
 _atom_site_type_symbol
 _atom_site_label
 _atom_site_symmetry_multiplicity
 _atom_site_fract_x
 _atom_site_fract_y
 _atom_site_fract_z
 _atom_site_occupancy
  Na  Na0  1  0.49069740  0.32466531  0.27143623  1
  C  C1  1  0.17827829  0.26964042  0.77076833  1
  I  I2  1  -0.01932463  -0.15381652  0.27049669  1
  I  I3  1  0.11802817  0.50179992  0.58053043  1
  I  I4  1  0.12060612  0.50185063  -0.03926824  1
  I  I5  1  0.61171465  0.05586026  0.77103655  1
