# generated using pymatgen
data_Li5SiBr4
_symmetry_space_group_name_H-M   'P 1'
_cell_length_a   8.52301690
_cell_length_b   8.52301539
_cell_length_c   6.46095748
_cell_angle_alpha   89.99996621
_cell_angle_beta   89.99997994
_cell_angle_gamma   89.99959072
_symmetry_Int_Tables_number   1
_chemical_formula_structural   Li5SiBr4
_chemical_formula_sum   'Li10 Si2 Br8'
_cell_volume   469.33560818
_cell_formula_units_Z   2
loop_
 _symmetry_equiv_pos_site_id
 _symmetry_equiv_pos_as_xyz
  1  'x, y, z'
loop_
 _atom_site_type_symbol
 _atom_site_label
 _atom_site_symmetry_multiplicity
 _atom_site_fract_x
 _atom_site_fract_y
 _atom_site_fract_z
 _atom_site_occupancy
  Li  Li0  1  0.27190819  0.72980214  0.22790382  1
  Li  Li1  1  0.72809790  0.27019378  0.22791345  1
  Li  Li2  1  -0.00000031  -0.00000005  0.04058867  1
  Li  Li3  1  0.27019866  0.27190344  0.22790752  1
  Li  Li4  1  0.72980628  0.72809287  0.22791085  1
  Li  Li5  1  0.22980729  0.77191315  0.72790325  1
  Li  Li6  1  0.77018804  0.22809103  0.72791299  1
  Li  Li7  1  0.50000004  0.49999980  0.54058879  1
  Li  Li8  1  0.77190987  0.77019236  0.72790743  1
  Li  Li9  1  0.22808677  0.22981305  0.72790986  1
  Si  Si10  1  0.50000100  0.49999725  0.00373737  1
  Si  Si11  1  -0.00000276  0.00000155  0.50373777  1
  Br  Br12  1  0.49878825  0.20238876  0.49757242  1
  Br  Br13  1  0.50121130  0.79761097  0.49756846  1
  Br  Br14  1  0.20238983  0.50120970  0.49757013  1
  Br  Br15  1  0.79761055  0.49879040  0.49757292  1
  Br  Br16  1  0.70238856  0.99876202  -0.00242712  1
  Br  Br17  1  0.29761086  0.00123754  -0.00243236  1
  Br  Br18  1  0.00123575  0.70238963  -0.00242936  1
  Br  Br19  1  0.99876395  0.29761060  -0.00242726  1
