# generated using pymatgen
data_Na(S2I)2
_symmetry_space_group_name_H-M   'P 1'
_cell_length_a   4.80469419
_cell_length_b   9.21454602
_cell_length_c   10.87990125
_cell_angle_alpha   83.77127481
_cell_angle_beta   88.25702638
_cell_angle_gamma   98.37380421
_symmetry_Int_Tables_number   1
_chemical_formula_structural   Na(S2I)2
_chemical_formula_sum   'Na2 S8 I4'
_cell_volume   473.21485590
_cell_formula_units_Z   2
loop_
 _symmetry_equiv_pos_site_id
 _symmetry_equiv_pos_as_xyz
  1  'x, y, z'
loop_
 _atom_site_type_symbol
 _atom_site_label
 _atom_site_symmetry_multiplicity
 _atom_site_fract_x
 _atom_site_fract_y
 _atom_site_fract_z
 _atom_site_occupancy
  Na  Na0  1  0.46877430  -0.23145780  0.62078281  1
  Na  Na1  1  -0.17506793  0.31302224  0.64335683  1
  S  S2  1  0.42914205  0.60433059  0.05609986  1
  S  S3  1  0.62144524  0.63357078  0.23008672  1
  S  S4  1  0.70439763  0.42245143  0.24951188  1
  S  S5  1  0.55694775  0.40089540  0.06487115  1
  S  S6  1  0.20436342  0.94458939  0.00038112  1
  S  S7  1  0.35605996  -0.07743258  0.16855612  1
  S  S8  1  -0.25874378  0.08707485  0.17037516  1
  S  S9  1  0.93249320  0.11406782  0.00358455  1
  I  I10  1  -0.06870724  0.62156312  0.47390308  1
  I  I11  1  0.01183552  -0.01131122  0.68157527  1
  I  I12  1  0.35610965  0.45364386  0.79804000  1
  I  I13  1  0.36095023  0.22499213  0.43531927  1
