# generated using pymatgen
data_Li2IN
_symmetry_space_group_name_H-M   'P 1'
_cell_length_a   5.22491003
_cell_length_b   5.21259099
_cell_length_c   6.02623578
_cell_angle_alpha   90.00004448
_cell_angle_beta   90.00058988
_cell_angle_gamma   81.69113281
_symmetry_Int_Tables_number   1
_chemical_formula_structural   Li2IN
_chemical_formula_sum   'Li4 I2 N2'
_cell_volume   162.40368969
_cell_formula_units_Z   2
loop_
 _symmetry_equiv_pos_site_id
 _symmetry_equiv_pos_as_xyz
  1  'x, y, z'
loop_
 _atom_site_type_symbol
 _atom_site_label
 _atom_site_symmetry_multiplicity
 _atom_site_fract_x
 _atom_site_fract_y
 _atom_site_fract_z
 _atom_site_occupancy
  Li  Li0  1  0.08569836  0.42366303  0.74949908  1
  Li  Li1  1  0.43002053  0.07635043  0.75044800  1
  Li  Li2  1  0.08569754  0.42366109  0.25048931  1
  Li  Li3  1  0.43002532  0.07634929  0.24954625  1
  I  I4  1  -0.07061913  -0.07761988  0.50001808  1
  I  I5  1  0.58611162  0.57769771  -0.00001560  1
  N  N6  1  0.32334189  0.31636368  0.00001247  1
  N  N7  1  0.19222386  0.18353465  0.50000242  1
