# generated using pymatgen
data_Li2NCl6
_symmetry_space_group_name_H-M   'P 1'
_cell_length_a   6.25007065
_cell_length_b   6.23154393
_cell_length_c   11.03976705
_cell_angle_alpha   86.72962542
_cell_angle_beta   87.61506327
_cell_angle_gamma   96.39258294
_symmetry_Int_Tables_number   1
_chemical_formula_structural   Li2NCl6
_chemical_formula_sum   'Li4 N2 Cl12'
_cell_volume   426.10422064
_cell_formula_units_Z   2
loop_
 _symmetry_equiv_pos_site_id
 _symmetry_equiv_pos_as_xyz
  1  'x, y, z'
loop_
 _atom_site_type_symbol
 _atom_site_label
 _atom_site_symmetry_multiplicity
 _atom_site_fract_x
 _atom_site_fract_y
 _atom_site_fract_z
 _atom_site_occupancy
  Li  Li0  1  0.61895035  0.37325745  0.83267779  1
  Li  Li1  1  0.44637145  0.44422111  0.16735328  1
  Li  Li2  1  -0.04671324  -0.02405377  0.25014774  1
  Li  Li3  1  0.20571530  -0.24377643  0.81622515  1
  N  N4  1  0.39766838  0.54722369  0.42255201  1
  N  N5  1  -0.08993687  0.05639598  0.04882903  1
  Cl  Cl6  1  -0.28075329  0.60849434  0.29541626  1
  Cl  Cl7  1  -0.07493833  0.56279720  0.72365368  1
  Cl  Cl8  1  0.30900385  0.10560421  0.22800792  1
  Cl  Cl9  1  0.86848017  0.14609426  0.44593238  1
  Cl  Cl10  1  0.35499053  0.78360396  0.47708562  1
  Cl  Cl11  1  0.88807492  0.88023477  0.57432139  1
  Cl  Cl12  1  0.43916631  0.36656490  0.53699378  1
  Cl  Cl13  1  0.43669587  0.07251735  0.74626176  1
  Cl  Cl14  1  0.82674983  0.32403225  0.04343643  1
  Cl  Cl15  1  0.38569160  0.55528490  -0.04258073  1
  Cl  Cl16  1  0.69312628  0.87132327  0.00394859  1
  Cl  Cl17  1  0.12165691  0.07018055  -0.07026208  1
