# generated using pymatgen
data_NaNCl4
_symmetry_space_group_name_H-M   'P 1'
_cell_length_a   11.86224600
_cell_length_b   5.95101973
_cell_length_c   4.31350858
_cell_angle_alpha   88.05136410
_cell_angle_beta   90.00065681
_cell_angle_gamma   90.00381359
_symmetry_Int_Tables_number   1
_chemical_formula_structural   NaNCl4
_chemical_formula_sum   'Na2 N2 Cl8'
_cell_volume   304.32509146
_cell_formula_units_Z   2
loop_
 _symmetry_equiv_pos_site_id
 _symmetry_equiv_pos_as_xyz
  1  'x, y, z'
loop_
 _atom_site_type_symbol
 _atom_site_label
 _atom_site_symmetry_multiplicity
 _atom_site_fract_x
 _atom_site_fract_y
 _atom_site_fract_z
 _atom_site_occupancy
  Na  Na0  1  0.07259713  0.47712542  0.01216585  1
  Na  Na1  1  -0.07254820  -0.02289182  0.51226306  1
  N  N2  1  0.39402400  0.01105241  0.51833225  1
  N  N3  1  0.60597145  0.51111076  0.01820390  1
  Cl  Cl4  1  0.28618613  0.89566465  0.36748157  1
  Cl  Cl5  1  0.51721257  -0.02177228  0.31886390  1
  Cl  Cl6  1  0.48276400  0.47820991  0.81888059  1
  Cl  Cl7  1  0.71382514  0.39569428  0.86744884  1
  Cl  Cl8  1  0.76470608  -0.01107862  0.00634185  1
  Cl  Cl9  1  0.07984442  -0.01769650  0.02336275  1
  Cl  Cl10  1  0.92010299  0.48227906  0.52346283  1
  Cl  Cl11  1  0.23531428  0.48896939  0.50639122  1
