# generated using pymatgen
data_LiBCl4
_symmetry_space_group_name_H-M   'P 1'
_cell_length_a   9.53292101
_cell_length_b   9.53212579
_cell_length_c   6.23003146
_cell_angle_alpha   90.00040307
_cell_angle_beta   90.00088851
_cell_angle_gamma   90.00117152
_symmetry_Int_Tables_number   1
_chemical_formula_structural   LiBCl4
_chemical_formula_sum   'Li4 B4 Cl16'
_cell_volume   566.11674230
_cell_formula_units_Z   4
loop_
 _symmetry_equiv_pos_site_id
 _symmetry_equiv_pos_as_xyz
  1  'x, y, z'
loop_
 _atom_site_type_symbol
 _atom_site_label
 _atom_site_symmetry_multiplicity
 _atom_site_fract_x
 _atom_site_fract_y
 _atom_site_fract_z
 _atom_site_occupancy
  Li  Li0  1  -0.00000143  0.00000336  0.49999540  1
  Li  Li1  1  -0.00000225  0.00000411  0.00000461  1
  Li  Li2  1  0.49999949  0.49999834  0.00000802  1
  Li  Li3  1  0.50000037  0.49999764  0.49999198  1
  B  B4  1  0.50000205  -0.00001403  0.50006472  1
  B  B5  1  0.00000136  0.50001211  -0.00016576  1
  B  B6  1  0.00000535  0.50000695  0.50016568  1
  B  B7  1  0.49999798  -0.00000880  -0.00006465  1
  Cl  Cl8  1  0.12582298  0.22998200  0.74998746  1
  Cl  Cl9  1  0.77002605  0.12582964  0.25000831  1
  Cl  Cl10  1  0.22996929  0.87417666  0.25001077  1
  Cl  Cl11  1  0.87417811  0.77000417  0.74999354  1
  Cl  Cl12  1  0.22997232  0.12582686  0.24998834  1
  Cl  Cl13  1  0.12582480  0.76999740  0.75000823  1
  Cl  Cl14  1  0.87417401  0.22998383  0.75001076  1
  Cl  Cl15  1  0.77003556  0.87417839  0.24999258  1
  Cl  Cl16  1  0.37418199  0.27002482  0.75001339  1
  Cl  Cl17  1  0.72996279  0.37417451  0.24999052  1
  Cl  Cl18  1  0.27004403  0.62581988  0.24998879  1
  Cl  Cl19  1  0.62581776  0.72999468  0.75000722  1
  Cl  Cl20  1  0.27003697  0.37417653  0.25001243  1
  Cl  Cl21  1  0.37417970  0.72999610  0.74999131  1
  Cl  Cl22  1  0.62582141  0.27001748  0.74998808  1
  Cl  Cl23  1  0.72994931  0.62581739  0.25000827  1
