# generated using pymatgen
data_Na7Si2I
_symmetry_space_group_name_H-M   'P 1'
_cell_length_a   5.21937440
_cell_length_b   8.90400337
_cell_length_c   6.49753468
_cell_angle_alpha   89.99842084
_cell_angle_beta   90.00000079
_cell_angle_gamma   90.00000017
_symmetry_Int_Tables_number   1
_chemical_formula_structural   Na7Si2I
_chemical_formula_sum   'Na7 Si2 I1'
_cell_volume   301.96205495
_cell_formula_units_Z   1
loop_
 _symmetry_equiv_pos_site_id
 _symmetry_equiv_pos_as_xyz
  1  'x, y, z'
loop_
 _atom_site_type_symbol
 _atom_site_label
 _atom_site_symmetry_multiplicity
 _atom_site_fract_x
 _atom_site_fract_y
 _atom_site_fract_z
 _atom_site_occupancy
  Na  Na0  1  -0.00000001  0.71855673  0.24638890  1
  Na  Na1  1  0.00000000  0.28144330  0.75361109  1
  Na  Na2  1  -0.00000001  0.28144492  0.24633872  1
  Na  Na3  1  0.00000002  0.71855506  0.75366117  1
  Na  Na4  1  0.50000000  -0.00000006  0.75210171  1
  Na  Na5  1  0.50000000  0.00000006  0.24789838  1
  Na  Na6  1  0.50000000  0.49999998  0.50000000  1
  Si  Si7  1  -0.00000000  0.00000005  0.50000007  1
  Si  Si8  1  -0.00000000  -0.00000003  -0.00000006  1
  I  I9  1  0.49999999  0.49999999  0.00000001  1
