# generated using pymatgen
data_LiIO2
_symmetry_space_group_name_H-M   'P 1'
_cell_length_a   6.15942301
_cell_length_b   6.07282689
_cell_length_c   3.76814556
_cell_angle_alpha   86.30502553
_cell_angle_beta   89.99841136
_cell_angle_gamma   90.00103169
_symmetry_Int_Tables_number   1
_chemical_formula_structural   LiIO2
_chemical_formula_sum   'Li2 I2 O4'
_cell_volume   140.65490606
_cell_formula_units_Z   2
loop_
 _symmetry_equiv_pos_site_id
 _symmetry_equiv_pos_as_xyz
  1  'x, y, z'
loop_
 _atom_site_type_symbol
 _atom_site_label
 _atom_site_symmetry_multiplicity
 _atom_site_fract_x
 _atom_site_fract_y
 _atom_site_fract_z
 _atom_site_occupancy
  Li  Li0  1  0.61454838  0.34444135  0.23699211  1
  Li  Li1  1  -0.11454341  -0.15556563  0.23698002  1
  I  I2  1  0.39872886  0.95466734  0.90038738  1
  I  I3  1  0.10125789  0.45466239  0.90044197  1
  O  O4  1  0.86182988  0.52701072  0.20450251  1
  O  O5  1  0.32104864  0.42389026  0.24989852  1
  O  O6  1  0.17894221  0.92388882  0.24988822  1
  O  O7  1  0.63818755  0.02700474  0.20452438  1
