# generated using pymatgen
data_LiP3Br4
_symmetry_space_group_name_H-M   'P 1'
_cell_length_a   4.71394288
_cell_length_b   4.71640294
_cell_length_c   9.25375173
_cell_angle_alpha   90.00322769
_cell_angle_beta   90.00262512
_cell_angle_gamma   89.99999948
_symmetry_Int_Tables_number   1
_chemical_formula_structural   LiP3Br4
_chemical_formula_sum   'Li1 P3 Br4'
_cell_volume   205.73731105
_cell_formula_units_Z   1
loop_
 _symmetry_equiv_pos_site_id
 _symmetry_equiv_pos_as_xyz
  1  'x, y, z'
loop_
 _atom_site_type_symbol
 _atom_site_label
 _atom_site_symmetry_multiplicity
 _atom_site_fract_x
 _atom_site_fract_y
 _atom_site_fract_z
 _atom_site_occupancy
  Li  Li0  1  -0.00000523  -0.00000589  0.48134859  1
  P  P1  1  0.49991703  0.49990446  0.33712150  1
  P  P2  1  0.50000787  0.00000900  0.62044547  1
  P  P3  1  0.00001325  0.50001233  0.62006405  1
  Br  Br4  1  0.50003073  0.00004859  0.24161931  1
  Br  Br5  1  0.00004152  0.50003602  0.24136173  1
  Br  Br6  1  -0.00000810  -0.00000880  0.84630882  1
  Br  Br7  1  0.50000294  0.50000431  0.73244624  1
