# generated using pymatgen
data_Li3P7Br3
_symmetry_space_group_name_H-M   'P 1'
_cell_length_a   10.78496697
_cell_length_b   9.80941119
_cell_length_c   7.65416941
_cell_angle_alpha   90.24064022
_cell_angle_beta   99.69965272
_cell_angle_gamma   114.62115754
_symmetry_Int_Tables_number   1
_chemical_formula_structural   Li3P7Br3
_chemical_formula_sum   'Li6 P14 Br6'
_cell_volume   723.11597623
_cell_formula_units_Z   2
loop_
 _symmetry_equiv_pos_site_id
 _symmetry_equiv_pos_as_xyz
  1  'x, y, z'
loop_
 _atom_site_type_symbol
 _atom_site_label
 _atom_site_symmetry_multiplicity
 _atom_site_fract_x
 _atom_site_fract_y
 _atom_site_fract_z
 _atom_site_occupancy
  Li  Li0  1  0.56449622  0.68962464  0.56839896  1
  Li  Li1  1  0.68227728  0.14163988  0.30101738  1
  Li  Li2  1  0.39869081  0.60235227  0.90125759  1
  Li  Li3  1  0.67046244  0.49229763  0.06069169  1
  Li  Li4  1  0.26946341  0.80217815  0.67030137  1
  Li  Li5  1  0.47809314  0.33121576  0.42665158  1
  P  P6  1  0.03002452  0.13759505  0.21244140  1
  P  P7  1  -0.01760154  -0.16843338  0.78966835  1
  P  P8  1  0.83191325  0.88957350  0.60668571  1
  P  P9  1  0.83824903  0.92274673  0.16010382  1
  P  P10  1  0.87942675  0.17388213  0.85491242  1
  P  P11  1  0.86071033  0.12007131  0.56929830  1
  P  P12  1  0.09178850  0.22687845  -0.03418532  1
  P  P13  1  0.05331414  0.26492059  0.46286134  1
  P  P14  1  0.88679443  0.75390163  0.02615415  1
  P  P15  1  0.89840486  0.80663508  0.38841977  1
  P  P16  1  0.12771687  0.90966281  0.42811969  1
  P  P17  1  0.11663355  0.83308951  0.14138545  1
  P  P18  1  0.19980658  0.15999059  0.42951472  1
  P  P19  1  0.16730015  0.01788593  0.95405389  1
  Br  Br20  1  0.52364997  0.45822118  0.74294611  1
  Br  Br21  1  0.51131672  0.55947083  0.24096068  1
  Br  Br22  1  0.15661856  0.56018510  0.78166280  1
  Br  Br23  1  0.51408834  -0.14651472  0.76687488  1
  Br  Br24  1  -0.18049597  0.38573039  0.22240948  1
  Br  Br25  1  0.44685768  0.07519895  0.32739377  1
