# generated using pymatgen
data_NaClO4
_symmetry_space_group_name_H-M   'P 1'
_cell_length_a   6.46790544
_cell_length_b   6.46789665
_cell_length_c   8.68570839
_cell_angle_alpha   89.99998639
_cell_angle_beta   89.99998694
_cell_angle_gamma   89.99264619
_symmetry_Int_Tables_number   1
_chemical_formula_structural   NaClO4
_chemical_formula_sum   'Na4 Cl4 O16'
_cell_volume   363.35569744
_cell_formula_units_Z   4
loop_
 _symmetry_equiv_pos_site_id
 _symmetry_equiv_pos_as_xyz
  1  'x, y, z'
loop_
 _atom_site_type_symbol
 _atom_site_label
 _atom_site_symmetry_multiplicity
 _atom_site_fract_x
 _atom_site_fract_y
 _atom_site_fract_z
 _atom_site_occupancy
  Na  Na0  1  0.50001083  0.00002457  -0.00002137  1
  Na  Na1  1  0.50001117  0.00002502  0.50002136  1
  Na  Na2  1  0.00000918  0.50001844  0.50002062  1
  Na  Na3  1  0.00000863  0.50001797  -0.00002062  1
  Cl  Cl4  1  0.00000705  0.00000774  0.49994887  1
  Cl  Cl5  1  0.50000486  0.49999848  0.49994511  1
  Cl  Cl6  1  0.00000721  0.00000799  0.00005115  1
  Cl  Cl7  1  0.50000506  0.49999858  0.00005486  1
  O  O8  1  0.67914730  0.04145439  0.24999941  1
  O  O9  1  0.54149240  0.17913753  0.24999940  1
  O  O10  1  0.32090962  0.04138957  0.75000005  1
  O  O11  1  0.54144131  0.82092292  0.75000006  1
  O  O12  1  0.67908100  -0.04140549  0.75000017  1
  O  O13  1  0.32084579  -0.04146746  0.25000037  1
  O  O14  1  0.45854627  0.17906787  0.75000018  1
  O  O15  1  0.45850141  0.82085349  0.25000036  1
  O  O16  1  0.82085621  0.45849813  0.25000039  1
  O  O17  1  0.17906884  0.45854215  0.75000020  1
  O  O18  1  -0.04146259  0.32084453  0.25000041  1
  O  O19  1  -0.04140453  0.67908041  0.75000018  1
  O  O20  1  0.17914067  0.54149133  0.24999937  1
  O  O21  1  0.04145865  0.67914822  0.24999937  1
  O  O22  1  0.82092106  0.54143808  0.75000004  1
  O  O23  1  0.04139261  0.32090554  0.75000006  1
