# generated using pymatgen
data_Li5I4N
_symmetry_space_group_name_H-M   'P 1'
_cell_length_a   10.94943378
_cell_length_b   10.94943383
_cell_length_c   5.15293249
_cell_angle_alpha   89.99997469
_cell_angle_beta   89.99997607
_cell_angle_gamma   90.00004096
_symmetry_Int_Tables_number   1
_chemical_formula_structural   Li5I4N
_chemical_formula_sum   'Li10 I8 N2'
_cell_volume   617.78559576
_cell_formula_units_Z   2
loop_
 _symmetry_equiv_pos_site_id
 _symmetry_equiv_pos_as_xyz
  1  'x, y, z'
loop_
 _atom_site_type_symbol
 _atom_site_label
 _atom_site_symmetry_multiplicity
 _atom_site_fract_x
 _atom_site_fract_y
 _atom_site_fract_z
 _atom_site_occupancy
  Li  Li0  1  0.89538795  0.39538792  0.25000297  1
  Li  Li1  1  0.10461180  0.60461187  0.24999703  1
  Li  Li2  1  0.39538639  0.89538626  0.75000299  1
  Li  Li3  1  0.60461400  0.10461374  0.74999700  1
  Li  Li4  1  0.10461273  0.39538710  0.75000002  1
  Li  Li5  1  0.89538723  0.60461264  0.74999998  1
  Li  Li6  1  -0.00000034  0.00000017  -0.00000136  1
  Li  Li7  1  0.50000005  0.50000011  0.50000122  1
  Li  Li8  1  0.60461137  0.89538886  0.25000001  1
  Li  Li9  1  0.39538888  0.10461131  0.24999999  1
  I  I10  1  0.15017659  0.34982277  0.25000000  1
  I  I11  1  0.65017626  0.84982431  0.75000001  1
  I  I12  1  0.84982271  0.65017663  0.24999999  1
  I  I13  1  0.34982282  0.84982242  0.25000213  1
  I  I14  1  0.15017634  0.65017653  0.74999790  1
  I  I15  1  0.34982440  0.15017624  0.74999999  1
  I  I16  1  0.65017772  0.15017739  0.24999786  1
  I  I17  1  0.84982328  0.34982357  0.75000210  1
  N  N18  1  0.49999986  0.50000010  -0.00000221  1
  N  N19  1  -0.00000003  0.00000008  0.50000240  1
