# generated using pymatgen
data_K4S3I
_symmetry_space_group_name_H-M   'P 1'
_cell_length_a   7.96012219
_cell_length_b   7.95993697
_cell_length_c   7.96022283
_cell_angle_alpha   90.00000105
_cell_angle_beta   90.00000008
_cell_angle_gamma   90.00000112
_symmetry_Int_Tables_number   1
_chemical_formula_structural   K4S3I
_chemical_formula_sum   'K8 S6 I2'
_cell_volume   504.37620335
_cell_formula_units_Z   2
loop_
 _symmetry_equiv_pos_site_id
 _symmetry_equiv_pos_as_xyz
  1  'x, y, z'
loop_
 _atom_site_type_symbol
 _atom_site_label
 _atom_site_symmetry_multiplicity
 _atom_site_fract_x
 _atom_site_fract_y
 _atom_site_fract_z
 _atom_site_occupancy
  K  K0  1  0.25033104  0.25034508  0.25033262  1
  K  K1  1  0.24965976  0.75032750  0.24966081  1
  K  K2  1  0.25033105  0.74965492  0.74966735  1
  K  K3  1  0.74966895  0.25034508  0.74966735  1
  K  K4  1  0.24965975  0.24967252  0.75033921  1
  K  K5  1  0.75034024  0.75032749  0.75033917  1
  K  K6  1  0.75034024  0.24967250  0.24966081  1
  K  K7  1  0.74966896  0.74965492  0.25033267  1
  S  S8  1  0.00000000  0.50000000  -0.00000000  1
  S  S9  1  0.50000000  0.00000000  0.00000000  1
  S  S10  1  0.00000000  0.00000000  0.50000000  1
  S  S11  1  -0.00000000  0.50000000  0.50000000  1
  S  S12  1  0.50000000  0.50000000  0.00000000  1
  S  S13  1  0.50000000  0.00000000  0.50000000  1
  I  I14  1  0.50000000  0.50000000  0.50000001  1
  I  I15  1  0.00000000  -0.00000000  0.00000000  1
