# generated using pymatgen
data_Li3CI6
_symmetry_space_group_name_H-M   'P 1'
_cell_length_a   8.53213187
_cell_length_b   8.42524477
_cell_length_c   8.33070911
_cell_angle_alpha   95.29048444
_cell_angle_beta   85.76968165
_cell_angle_gamma   135.23995244
_symmetry_Int_Tables_number   1
_chemical_formula_structural   Li3CI6
_chemical_formula_sum   'Li3 C1 I6'
_cell_volume   419.85195941
_cell_formula_units_Z   1
loop_
 _symmetry_equiv_pos_site_id
 _symmetry_equiv_pos_as_xyz
  1  'x, y, z'
loop_
 _atom_site_type_symbol
 _atom_site_label
 _atom_site_symmetry_multiplicity
 _atom_site_fract_x
 _atom_site_fract_y
 _atom_site_fract_z
 _atom_site_occupancy
  Li  Li0  1  0.86334262  0.11140218  0.27163239  1
  Li  Li1  1  0.38335476  -0.02200291  0.43690367  1
  Li  Li2  1  0.88861561  0.85696970  0.47667147  1
  C  C3  1  0.13558995  0.21090246  0.40021801  1
  I  I4  1  -0.04237146  0.43291661  0.11514394  1
  I  I5  1  0.46629486  -0.08527156  0.11969535  1
  I  I6  1  0.45883265  0.36782408  0.31663391  1
  I  I7  1  0.07675004  0.81147269  0.66788946  1
  I  I8  1  0.62621706  0.91750695  0.60558442  1
  I  I9  1  0.14337391  0.39827978  0.59998740  1
