# generated using pymatgen
data_KI3N2
_symmetry_space_group_name_H-M   'P 1'
_cell_length_a   12.50661967
_cell_length_b   11.78612640
_cell_length_c   6.47850141
_cell_angle_alpha   80.96856604
_cell_angle_beta   90.87200530
_cell_angle_gamma   88.62145588
_symmetry_Int_Tables_number   1
_chemical_formula_structural   KI3N2
_chemical_formula_sum   'K4 I12 N8'
_cell_volume   942.67417398
_cell_formula_units_Z   4
loop_
 _symmetry_equiv_pos_site_id
 _symmetry_equiv_pos_as_xyz
  1  'x, y, z'
loop_
 _atom_site_type_symbol
 _atom_site_label
 _atom_site_symmetry_multiplicity
 _atom_site_fract_x
 _atom_site_fract_y
 _atom_site_fract_z
 _atom_site_occupancy
  K  K0  1  0.02815900  0.56718531  0.31687851  1
  K  K1  1  0.50074394  0.04687276  0.16171212  1
  K  K2  1  0.17456962  0.04959131  0.75445629  1
  K  K3  1  0.55678778  0.60407116  0.71405431  1
  I  I4  1  0.02423715  0.85168817  0.47070848  1
  I  I5  1  0.93562505  0.00248600  0.11809415  1
  I  I6  1  0.83370146  0.16443969  -0.25466557  1
  I  I7  1  0.24321781  0.14491884  0.23152529  1
  I  I8  1  0.30725278  0.54337872  0.45848875  1
  I  I9  1  0.50206574  0.41074760  0.24915635  1
  I  I10  1  0.66503826  0.31025588  0.03366279  1
  I  I11  1  0.65890126  0.78086765  0.27140917  1
  I  I12  1  0.34196422  0.72536307  0.09761501  1
  I  I13  1  0.63301560  0.03777025  0.67136463  1
  I  I14  1  0.12684767  0.34303142  0.95172913  1
  I  I15  1  0.79518910  0.67240597  0.99599548  1
  N  N16  1  0.47396518  -0.04859461  0.62621996  1
  N  N17  1  0.47750562  0.83230771  0.69994016  1
  N  N18  1  0.40213449  0.85334629  0.83372927  1
  N  N19  1  0.39867080  -0.03075030  0.78218997  1
  N  N20  1  0.92982868  0.48557151  0.72858527  1
  N  N21  1  0.92191441  0.57587926  0.83237658  1
  N  N22  1  0.04206652  0.49367520  0.75646526  1
  N  N23  1  0.02659786  0.58349117  0.87647797  1
