# generated using pymatgen
data_K4CI
_symmetry_space_group_name_H-M   'P 1'
_cell_length_a   5.86502657
_cell_length_b   10.34476123
_cell_length_c   9.06663294
_cell_angle_alpha   89.99997993
_cell_angle_beta   90.00000169
_cell_angle_gamma   90.00000001
_symmetry_Int_Tables_number   1
_chemical_formula_structural   K4CI
_chemical_formula_sum   'K8 C2 I2'
_cell_volume   550.09346824
_cell_formula_units_Z   2
loop_
 _symmetry_equiv_pos_site_id
 _symmetry_equiv_pos_as_xyz
  1  'x, y, z'
loop_
 _atom_site_type_symbol
 _atom_site_label
 _atom_site_symmetry_multiplicity
 _atom_site_fract_x
 _atom_site_fract_y
 _atom_site_fract_z
 _atom_site_occupancy
  K  K0  1  0.00000000  0.80452603  0.24999976  1
  K  K1  1  0.00000000  0.19547400  0.75000024  1
  K  K2  1  -0.00000000  0.23605675  0.25000040  1
  K  K3  1  -0.00000001  0.76394318  0.74999959  1
  K  K4  1  0.49974141  -0.00000003  0.50000004  1
  K  K5  1  0.50000000  0.56417035  0.24999995  1
  K  K6  1  0.50000000  0.43582973  0.75000004  1
  K  K7  1  0.50025860  -0.00000004  -0.00000004  1
  C  C8  1  0.50000000  0.16757691  0.75000002  1
  C  C9  1  0.50000000  0.83242315  0.24999999  1
  I  I10  1  0.00259067  0.49999999  0.49999995  1
  I  I11  1  -0.00259068  0.49999999  0.00000004  1
