# generated using pymatgen
data_Na2Br3O
_symmetry_space_group_name_H-M   'P 1'
_cell_length_a   6.80917424
_cell_length_b   6.81120766
_cell_length_c   7.12884482
_cell_angle_alpha   89.99976517
_cell_angle_beta   90.00017613
_cell_angle_gamma   116.25725267
_symmetry_Int_Tables_number   1
_chemical_formula_structural   Na2Br3O
_chemical_formula_sum   'Na4 Br6 O2'
_cell_volume   296.51143056
_cell_formula_units_Z   2
loop_
 _symmetry_equiv_pos_site_id
 _symmetry_equiv_pos_as_xyz
  1  'x, y, z'
loop_
 _atom_site_type_symbol
 _atom_site_label
 _atom_site_symmetry_multiplicity
 _atom_site_fract_x
 _atom_site_fract_y
 _atom_site_fract_z
 _atom_site_occupancy
  Na  Na0  1  0.14612934  0.85364935  0.75010902  1
  Na  Na1  1  0.85386794  0.14635188  0.25012530  1
  Na  Na2  1  0.85387396  0.14634980  0.74987713  1
  Na  Na3  1  0.14612608  0.85365582  0.24988831  1
  Br  Br4  1  -0.15341749  0.49928003  0.49999997  1
  Br  Br5  1  0.50115902  0.15363139  -0.00000278  1
  Br  Br6  1  0.34956410  0.34875014  0.49999956  1
  Br  Br7  1  0.65040441  0.65120970  0.00000058  1
  Br  Br8  1  0.15342854  0.50073725  0.00000338  1
  Br  Br9  1  0.49885579  -0.15361975  0.49999959  1
  O  O10  1  -0.09758643  -0.09771713  0.00000016  1
  O  O11  1  0.09759475  0.09772151  0.49999979  1
