# generated using pymatgen
data_KI3N4
_symmetry_space_group_name_H-M   'P 1'
_cell_length_a   6.10447554
_cell_length_b   5.02669681
_cell_length_c   8.59591372
_cell_angle_alpha   101.43527238
_cell_angle_beta   96.27187990
_cell_angle_gamma   91.51057804
_symmetry_Int_Tables_number   1
_chemical_formula_structural   KI3N4
_chemical_formula_sum   'K1 I3 N4'
_cell_volume   256.67287221
_cell_formula_units_Z   1
loop_
 _symmetry_equiv_pos_site_id
 _symmetry_equiv_pos_as_xyz
  1  'x, y, z'
loop_
 _atom_site_type_symbol
 _atom_site_label
 _atom_site_symmetry_multiplicity
 _atom_site_fract_x
 _atom_site_fract_y
 _atom_site_fract_z
 _atom_site_occupancy
  K  K0  1  0.89834235  0.44549109  0.12023957  1
  I  I1  1  -0.11990737  0.07104392  0.44311613  1
  I  I2  1  0.39221901  -0.05936302  0.11884530  1
  I  I3  1  -0.00332005  0.74521525  0.76857831  1
  N  N4  1  -0.08282001  0.69433851  0.48877722  1
  N  N5  1  0.43868336  -0.30254461  0.55391346  1
  N  N6  1  0.41215361  0.48295293  0.48716035  1
  N  N7  1  0.06464909  -0.07713407  0.01936965  1
