# generated using pymatgen
data_Na5I5O4
_symmetry_space_group_name_H-M   'P 1'
_cell_length_a   9.03967349
_cell_length_b   10.43251719
_cell_length_c   8.91855938
_cell_angle_alpha   90.05381162
_cell_angle_beta   67.95291127
_cell_angle_gamma   90.00579691
_symmetry_Int_Tables_number   1
_chemical_formula_structural   Na5I5O4
_chemical_formula_sum   'Na10 I10 O8'
_cell_volume   779.57487899
_cell_formula_units_Z   2
loop_
 _symmetry_equiv_pos_site_id
 _symmetry_equiv_pos_as_xyz
  1  'x, y, z'
loop_
 _atom_site_type_symbol
 _atom_site_label
 _atom_site_symmetry_multiplicity
 _atom_site_fract_x
 _atom_site_fract_y
 _atom_site_fract_z
 _atom_site_occupancy
  Na  Na0  1  0.07289082  -0.02815947  0.76066586  1
  Na  Na1  1  0.07327986  0.03007004  0.26167228  1
  Na  Na2  1  0.23579404  0.65921016  0.06472443  1
  Na  Na3  1  0.87868590  0.17321509  0.07820525  1
  Na  Na4  1  0.87649109  0.82504524  0.57875172  1
  Na  Na5  1  0.23645766  0.34009188  0.56420133  1
  Na  Na6  1  0.73253733  0.75698393  0.97429802  1
  Na  Na7  1  0.23329983  0.23298655  0.91830294  1
  Na  Na8  1  0.23229243  0.76725922  0.41895785  1
  Na  Na9  1  0.73365021  0.24467195  0.47349514  1
  I  I10  1  0.48224749  0.56401083  0.21859274  1
  I  I11  1  0.48180068  0.43682359  0.71913949  1
  I  I12  1  0.14996260  0.63225669  0.75317057  1
  I  I13  1  0.71520487  0.07406434  0.80845111  1
  I  I14  1  0.85221105  0.35731294  0.79391078  1
  I  I15  1  0.34769671  0.94009707  0.91527942  1
  I  I16  1  0.85195979  0.64117915  0.29437909  1
  I  I17  1  0.71701535  0.92504124  0.30830977  1
  I  I18  1  0.15110963  0.36839013  0.25278906  1
  I  I19  1  0.35013911  0.05991775  0.41470850  1
  O  O20  1  -0.02254934  0.75505353  0.76890551  1
  O  O21  1  0.64638732  -0.11048909  0.81724769  1
  O  O22  1  0.04225667  0.27743151  0.81255812  1
  O  O23  1  0.12905216  0.02839743  0.98394665  1
  O  O24  1  0.13103516  -0.02735224  0.48317579  1
  O  O25  1  0.04185482  0.72068156  0.31385717  1
  O  O26  1  -0.02187609  0.24606216  0.26857325  1
  O  O27  1  0.64911283  0.10974680  0.31695176  1
