# generated using pymatgen
data_K7PI5
_symmetry_space_group_name_H-M   'P 1'
_cell_length_a   6.74127485
_cell_length_b   6.74127506
_cell_length_c   13.91377639
_cell_angle_alpha   90.00000900
_cell_angle_beta   90.00000237
_cell_angle_gamma   89.99999931
_symmetry_Int_Tables_number   1
_chemical_formula_structural   K7PI5
_chemical_formula_sum   'K7 P1 I5'
_cell_volume   632.30861827
_cell_formula_units_Z   1
loop_
 _symmetry_equiv_pos_site_id
 _symmetry_equiv_pos_as_xyz
  1  'x, y, z'
loop_
 _atom_site_type_symbol
 _atom_site_label
 _atom_site_symmetry_multiplicity
 _atom_site_fract_x
 _atom_site_fract_y
 _atom_site_fract_z
 _atom_site_occupancy
  K  K0  1  0.50000067  0.50000039  0.49999986  1
  K  K1  1  0.25248965  0.25248971  0.19944204  1
  K  K2  1  0.74751014  0.74751011  0.19944200  1
  K  K3  1  0.74751043  0.25248991  0.80055792  1
  K  K4  1  0.25248994  0.74751033  0.80055799  1
  K  K5  1  0.49999944  0.00000018  0.50000004  1
  K  K6  1  0.00000031  0.49999971  0.50000011  1
  P  P7  1  -0.00000078  -0.00000044  0.50000001  1
  I  I8  1  0.73413880  0.73413878  0.71428772  1
  I  I9  1  0.73413846  0.26586148  0.28571249  1
  I  I10  1  0.26586149  0.73413850  0.28571250  1
  I  I11  1  0.26586181  0.26586176  0.71428732  1
  I  I12  1  0.49999964  0.49999958  0.00000001  1
