# generated using pymatgen
data_Na2IN2
_symmetry_space_group_name_H-M   'P 1'
_cell_length_a   4.89626989
_cell_length_b   4.89626922
_cell_length_c   10.01017074
_cell_angle_alpha   90.00000084
_cell_angle_beta   90.00000062
_cell_angle_gamma   88.12134233
_symmetry_Int_Tables_number   1
_chemical_formula_structural   Na2IN2
_chemical_formula_sum   'Na4 I2 N4'
_cell_volume   239.84939462
_cell_formula_units_Z   2
loop_
 _symmetry_equiv_pos_site_id
 _symmetry_equiv_pos_as_xyz
  1  'x, y, z'
loop_
 _atom_site_type_symbol
 _atom_site_label
 _atom_site_symmetry_multiplicity
 _atom_site_fract_x
 _atom_site_fract_y
 _atom_site_fract_z
 _atom_site_occupancy
  Na  Na0  1  0.00000001  0.50000000  0.24999644  1
  Na  Na1  1  -0.00000000  0.50000000  0.75000039  1
  Na  Na2  1  0.50000001  -0.00000000  0.75000385  1
  Na  Na3  1  0.49999999  0.00000000  0.24999965  1
  I  I4  1  -0.00000001  -0.00000001  -0.00000664  1
  I  I5  1  0.49999999  0.50000001  0.50000527  1
  N  N6  1  0.49999998  0.49999997  0.18722643  1
  N  N7  1  0.50000003  0.50000003  0.81278321  1
  N  N8  1  0.00000003  0.00000003  0.31277855  1
  N  N9  1  -0.00000003  -0.00000003  0.68721286  1
