# generated using pymatgen
data_Li(C2I)3
_symmetry_space_group_name_H-M   'P 1'
_cell_length_a   5.95395330
_cell_length_b   5.95399954
_cell_length_c   5.95393166
_cell_angle_alpha   90.00000268
_cell_angle_beta   90.00000251
_cell_angle_gamma   90.00000232
_symmetry_Int_Tables_number   1
_chemical_formula_structural   Li(C2I)3
_chemical_formula_sum   'Li1 C6 I3'
_cell_volume   211.06589580
_cell_formula_units_Z   1
loop_
 _symmetry_equiv_pos_site_id
 _symmetry_equiv_pos_as_xyz
  1  'x, y, z'
loop_
 _atom_site_type_symbol
 _atom_site_label
 _atom_site_symmetry_multiplicity
 _atom_site_fract_x
 _atom_site_fract_y
 _atom_site_fract_z
 _atom_site_occupancy
  Li  Li0  1  0.00000000  0.00000000  -0.00000000  1
  C  C1  1  0.50000001  0.50000001  0.69051122  1
  C  C2  1  0.50000000  0.30949187  0.50000000  1
  C  C3  1  0.50000001  0.69050813  0.49999999  1
  C  C4  1  0.30948984  0.49999999  0.50000001  1
  C  C5  1  0.49999999  0.49999999  0.30948878  1
  C  C6  1  0.69051016  0.50000001  0.50000000  1
  I  I7  1  -0.00000000  0.00000000  0.50000000  1
  I  I8  1  0.50000000  -0.00000000  -0.00000000  1
  I  I9  1  0.00000000  0.50000000  0.00000000  1
