# generated using pymatgen
data_Li3CI2
_symmetry_space_group_name_H-M   'P 1'
_cell_length_a   6.71189287
_cell_length_b   6.71187233
_cell_length_c   3.97563442
_cell_angle_alpha   90.08625847
_cell_angle_beta   90.08521256
_cell_angle_gamma   120.00885118
_symmetry_Int_Tables_number   1
_chemical_formula_structural   Li3CI2
_chemical_formula_sum   'Li3 C1 I2'
_cell_volume   155.09046182
_cell_formula_units_Z   1
loop_
 _symmetry_equiv_pos_site_id
 _symmetry_equiv_pos_as_xyz
  1  'x, y, z'
loop_
 _atom_site_type_symbol
 _atom_site_label
 _atom_site_symmetry_multiplicity
 _atom_site_fract_x
 _atom_site_fract_y
 _atom_site_fract_z
 _atom_site_occupancy
  Li  Li0  1  -0.00056878  0.32433622  0.46991581  1
  Li  Li1  1  0.32433506  -0.00057002  0.46991896  1
  Li  Li2  1  0.67560268  0.67560144  0.47054320  1
  C  C3  1  0.00012536  0.00012516  0.46982023  1
  I  I4  1  0.66690768  0.33359917  -0.02628696  1
  I  I5  1  0.33359799  0.66690803  -0.02628567  1
