# generated using pymatgen
data_Na7SI2
_symmetry_space_group_name_H-M   'P 1'
_cell_length_a   11.40701166
_cell_length_b   11.40701609
_cell_length_c   11.40702174
_cell_angle_alpha   90.00043714
_cell_angle_beta   90.00043057
_cell_angle_gamma   89.99997261
_symmetry_Int_Tables_number   1
_chemical_formula_structural   Na7SI2
_chemical_formula_sum   'Na28 S4 I8'
_cell_volume   1484.28127561
_cell_formula_units_Z   4
loop_
 _symmetry_equiv_pos_site_id
 _symmetry_equiv_pos_as_xyz
  1  'x, y, z'
loop_
 _atom_site_type_symbol
 _atom_site_label
 _atom_site_symmetry_multiplicity
 _atom_site_fract_x
 _atom_site_fract_y
 _atom_site_fract_z
 _atom_site_occupancy
  Na  Na0  1  0.87498149  0.87501738  0.87500110  1
  Na  Na1  1  0.89981713  0.20771325  0.85356137  1
  Na  Na2  1  0.89645909  0.54229464  0.85017205  1
  Na  Na3  1  0.85017723  0.89645551  0.54227836  1
  Na  Na4  1  0.20770555  0.85354105  0.89982777  1
  Na  Na5  1  0.85354457  0.89982302  0.20772170  1
  Na  Na6  1  0.54228644  0.85018263  0.89643846  1
  Na  Na7  1  0.37500112  0.62499970  0.12499339  1
  Na  Na8  1  0.04229364  0.64981668  0.10355043  1
  Na  Na9  1  0.70770767  0.64645041  0.10016876  1
  Na  Na10  1  0.39645784  0.95770827  0.14980967  1
  Na  Na11  1  0.35354487  0.60017795  0.79228898  1
  Na  Na12  1  0.35018071  0.60354568  0.45770538  1
  Na  Na13  1  0.39982187  0.29228968  0.14645799  1
  Na  Na14  1  0.12500095  0.37499715  0.62500422  1
  Na  Na15  1  0.10354933  0.04229216  0.64983125  1
  Na  Na16  1  0.10018338  0.70770614  0.64645002  1
  Na  Na17  1  0.79229134  0.35354242  0.60019032  1
  Na  Na18  1  0.14982196  0.39645545  0.95771104  1
  Na  Na19  1  0.45771074  0.35017800  0.60354217  1
  Na  Na20  1  0.14645436  0.39981945  0.29229420  1
  Na  Na21  1  0.62498038  0.12502130  0.37500166  1
  Na  Na22  1  0.64645374  0.10018135  0.70769502  1
  Na  Na23  1  0.64981857  0.10354593  0.04230539  1
  Na  Na24  1  0.60017867  0.79229670  0.35353021  1
  Na  Na25  1  0.95770374  0.14982143  0.39646927  1
  Na  Na26  1  0.60355083  0.45771095  0.35018684  1
  Na  Na27  1  0.29228901  0.14644906  0.39981330  1
  S  S28  1  0.37500248  0.37499720  0.37500058  1
  S  S29  1  0.62500694  0.87499245  0.12498039  1
  S  S30  1  0.12500146  0.62499894  0.87500024  1
  S  S31  1  0.87500728  0.12499365  0.62501865  1
  I  I32  1  0.47306413  0.97306003  0.52693087  1
  I  I33  1  0.22306888  0.77693643  0.27693205  1
  I  I34  1  0.27694093  0.22306512  0.77694028  1
  I  I35  1  0.52693505  0.47305866  0.97305972  1
  I  I36  1  0.77693985  0.27693579  0.22306892  1
  I  I37  1  0.97306375  0.52693107  0.47306836  1
  I  I38  1  0.72306793  0.72306490  0.72305871  1
  I  I39  1  0.02693509  0.02693241  0.02694091  1
