# generated using pymatgen
data_Li2SI
_symmetry_space_group_name_H-M   'P 1'
_cell_length_a   6.79530138
_cell_length_b   11.39743318
_cell_length_c   4.90305187
_cell_angle_alpha   90.00006981
_cell_angle_beta   90.00011885
_cell_angle_gamma   90.00000676
_symmetry_Int_Tables_number   1
_chemical_formula_structural   Li2SI
_chemical_formula_sum   'Li8 S4 I4'
_cell_volume   379.73643198
_cell_formula_units_Z   4
loop_
 _symmetry_equiv_pos_site_id
 _symmetry_equiv_pos_as_xyz
  1  'x, y, z'
loop_
 _atom_site_type_symbol
 _atom_site_label
 _atom_site_symmetry_multiplicity
 _atom_site_fract_x
 _atom_site_fract_y
 _atom_site_fract_z
 _atom_site_occupancy
  Li  Li0  1  0.77529422  0.37884190  0.75000276  1
  Li  Li1  1  0.22470552  0.37884217  0.74999492  1
  Li  Li2  1  0.22883558  0.62346953  0.25001220  1
  Li  Li3  1  0.77116454  0.62346943  0.24998222  1
  Li  Li4  1  0.27115261  0.87652601  0.74998738  1
  Li  Li5  1  0.72884710  0.87652612  0.75001758  1
  Li  Li6  1  0.72467845  0.12117518  0.24999710  1
  Li  Li7  1  0.27532210  0.12117520  0.25000490  1
  S  S8  1  -0.00000491  0.49321522  0.46497933  1
  S  S9  1  0.00000479  0.49321242  0.03502196  1
  S  S10  1  0.50000482  0.00677382  0.53506390  1
  S  S11  1  0.49999513  0.00677587  -0.03506427  1
  I  I12  1  0.50000001  0.33865116  0.25000188  1
  I  I13  1  -0.00000002  0.83539117  0.24999759  1
  I  I14  1  0.50000006  0.66459722  0.75000193  1
  I  I15  1  0.00000001  0.16135758  0.74999862  1
