# generated using pymatgen
data_Na3SiBr4
_symmetry_space_group_name_H-M   'P 1'
_cell_length_a   7.36816375
_cell_length_b   8.16302647
_cell_length_c   8.36822654
_cell_angle_alpha   89.99606900
_cell_angle_beta   89.99825281
_cell_angle_gamma   89.99998877
_symmetry_Int_Tables_number   1
_chemical_formula_structural   Na3SiBr4
_chemical_formula_sum   'Na6 Si2 Br8'
_cell_volume   503.31966710
_cell_formula_units_Z   2
loop_
 _symmetry_equiv_pos_site_id
 _symmetry_equiv_pos_as_xyz
  1  'x, y, z'
loop_
 _atom_site_type_symbol
 _atom_site_label
 _atom_site_symmetry_multiplicity
 _atom_site_fract_x
 _atom_site_fract_y
 _atom_site_fract_z
 _atom_site_occupancy
  Na  Na0  1  0.50002251  0.50001323  0.19863612  1
  Na  Na1  1  0.00000409  -0.00000360  0.57975495  1
  Na  Na2  1  0.50000409  -0.00001212  0.57495084  1
  Na  Na3  1  0.49997209  0.49998329  0.69863616  1
  Na  Na4  1  0.00000519  0.00002918  0.07975484  1
  Na  Na5  1  0.50000652  0.00002574  0.07495080  1
  Si  Si6  1  0.00001872  0.49990258  0.11923171  1
  Si  Si7  1  -0.00000192  0.50001152  0.61923185  1
  Br  Br8  1  0.75073380  0.38454094  0.94505578  1
  Br  Br9  1  0.24922934  0.61545280  0.94508554  1
  Br  Br10  1  0.74336576  0.88408401  0.82995052  1
  Br  Br11  1  0.25664845  0.11592349  0.82991856  1
  Br  Br12  1  0.24923923  0.38455691  0.44505713  1
  Br  Br13  1  0.75074323  0.61546902  0.44508395  1
  Br  Br14  1  0.74336299  0.11593120  0.32993617  1
  Br  Br15  1  0.25664590  0.88409183  0.32993288  1
