# generated using pymatgen
data_Na2SiBr
_symmetry_space_group_name_H-M   'P 1'
_cell_length_a   7.61245039
_cell_length_b   7.61245041
_cell_length_c   7.61245039
_cell_angle_alpha   90.00000227
_cell_angle_beta   90.00000206
_cell_angle_gamma   90.00000231
_symmetry_Int_Tables_number   1
_chemical_formula_structural   Na2SiBr
_chemical_formula_sum   'Na8 Si4 Br4'
_cell_volume   441.13694108
_cell_formula_units_Z   4
loop_
 _symmetry_equiv_pos_site_id
 _symmetry_equiv_pos_as_xyz
  1  'x, y, z'
loop_
 _atom_site_type_symbol
 _atom_site_label
 _atom_site_symmetry_multiplicity
 _atom_site_fract_x
 _atom_site_fract_y
 _atom_site_fract_z
 _atom_site_occupancy
  Na  Na0  1  0.25000004  0.25000040  0.24999994  1
  Na  Na1  1  0.25000004  0.74999960  0.75000006  1
  Na  Na2  1  0.74999996  0.25000040  0.75000006  1
  Na  Na3  1  0.74999996  0.74999960  0.24999994  1
  Na  Na4  1  0.25000004  0.74999960  0.24999994  1
  Na  Na5  1  0.25000004  0.25000040  0.75000006  1
  Na  Na6  1  0.74999996  0.25000040  0.24999994  1
  Na  Na7  1  0.74999996  0.74999960  0.75000006  1
  Si  Si8  1  0.00000000  0.50000000  0.00000000  1
  Si  Si9  1  -0.00000000  0.00000000  0.50000000  1
  Si  Si10  1  0.50000000  -0.00000000  -0.00000000  1
  Si  Si11  1  0.50000000  0.50000000  0.50000000  1
  Br  Br12  1  -0.00000000  0.00000000  -0.00000000  1
  Br  Br13  1  0.50000000  0.50000000  -0.00000000  1
  Br  Br14  1  0.50000000  -0.00000000  0.50000000  1
  Br  Br15  1  0.00000000  0.50000000  0.50000000  1
