# generated using pymatgen
data_Na4I4O
_symmetry_space_group_name_H-M   'P 1'
_cell_length_a   8.84087098
_cell_length_b   8.75828267
_cell_length_c   4.30418970
_cell_angle_alpha   89.98523881
_cell_angle_beta   90.00021391
_cell_angle_gamma   89.99999929
_symmetry_Int_Tables_number   1
_chemical_formula_structural   Na4I4O
_chemical_formula_sum   'Na4 I4 O1'
_cell_volume   333.27704330
_cell_formula_units_Z   1
loop_
 _symmetry_equiv_pos_site_id
 _symmetry_equiv_pos_as_xyz
  1  'x, y, z'
loop_
 _atom_site_type_symbol
 _atom_site_label
 _atom_site_symmetry_multiplicity
 _atom_site_fract_x
 _atom_site_fract_y
 _atom_site_fract_z
 _atom_site_occupancy
  Na  Na0  1  0.24231759  0.27231797  -0.00000674  1
  Na  Na1  1  0.75024328  0.77643677  -0.00004960  1
  Na  Na2  1  0.24231761  0.72768203  0.00002161  1
  Na  Na3  1  0.75024330  0.22356322  0.00005359  1
  I  I4  1  0.48350376  0.00000000  -0.00000193  1
  I  I5  1  -0.01761970  0.50000001  -0.00000515  1
  I  I6  1  0.50268541  0.50000000  -0.00000496  1
  I  I7  1  0.02288878  -0.00000001  -0.00000630  1
  O  O8  1  0.69529497  0.00000001  0.49999949  1
