# generated using pymatgen
data_NaSiBr2
_symmetry_space_group_name_H-M   'P 1'
_cell_length_a   5.57291260
_cell_length_b   3.74623937
_cell_length_c   12.14791172
_cell_angle_alpha   90.00012998
_cell_angle_beta   90.02469887
_cell_angle_gamma   89.99999458
_symmetry_Int_Tables_number   1
_chemical_formula_structural   NaSiBr2
_chemical_formula_sum   'Na2 Si2 Br4'
_cell_volume   253.61757274
_cell_formula_units_Z   2
loop_
 _symmetry_equiv_pos_site_id
 _symmetry_equiv_pos_as_xyz
  1  'x, y, z'
loop_
 _atom_site_type_symbol
 _atom_site_label
 _atom_site_symmetry_multiplicity
 _atom_site_fract_x
 _atom_site_fract_y
 _atom_site_fract_z
 _atom_site_occupancy
  Na  Na0  1  0.66484258  0.50000010  0.49990205  1
  Na  Na1  1  0.16049482  -0.00000006  0.00011026  1
  Si  Si2  1  0.10673879  0.00000010  0.50003639  1
  Si  Si3  1  0.60290178  0.49999995  -0.00000503  1
  Br  Br4  1  -0.11481590  0.49999834  0.85336934  1
  Br  Br5  1  -0.11485840  0.50000135  0.14662369  1
  Br  Br6  1  0.38885619  -0.00000011  0.35338271  1
  Br  Br7  1  0.38917347  0.00000033  0.64658058  1
