# generated using pymatgen
data_NaSi2Br
_symmetry_space_group_name_H-M   'P 1'
_cell_length_a   5.00168179
_cell_length_b   5.00168182
_cell_length_c   6.60336463
_cell_angle_alpha   90.00000057
_cell_angle_beta   90.00000003
_cell_angle_gamma   90.00000171
_symmetry_Int_Tables_number   1
_chemical_formula_structural   NaSi2Br
_chemical_formula_sum   'Na2 Si4 Br2'
_cell_volume   165.19518978
_cell_formula_units_Z   2
loop_
 _symmetry_equiv_pos_site_id
 _symmetry_equiv_pos_as_xyz
  1  'x, y, z'
loop_
 _atom_site_type_symbol
 _atom_site_label
 _atom_site_symmetry_multiplicity
 _atom_site_fract_x
 _atom_site_fract_y
 _atom_site_fract_z
 _atom_site_occupancy
  Na  Na0  1  0.50000001  0.00000000  0.25000000  1
  Na  Na1  1  -0.00000000  0.50000000  0.75000000  1
  Si  Si2  1  0.50000001  -0.00000001  0.75000000  1
  Si  Si3  1  0.00000001  0.49999999  0.25000000  1
  Si  Si4  1  -0.00000000  0.00000001  0.00000000  1
  Si  Si5  1  0.50000000  0.50000000  0.50000000  1
  Br  Br6  1  0.50000001  0.50000000  0.00000000  1
  Br  Br7  1  -0.00000002  0.00000000  0.50000000  1
