# generated using pymatgen
data_K2BS4
_symmetry_space_group_name_H-M   'P 1'
_cell_length_a   8.34930948
_cell_length_b   13.22701005
_cell_length_c   8.22122988
_cell_angle_alpha   89.76628981
_cell_angle_beta   89.17825806
_cell_angle_gamma   84.36125675
_symmetry_Int_Tables_number   1
_chemical_formula_structural   K2BS4
_chemical_formula_sum   'K8 B4 S16'
_cell_volume   903.43358819
_cell_formula_units_Z   4
loop_
 _symmetry_equiv_pos_site_id
 _symmetry_equiv_pos_as_xyz
  1  'x, y, z'
loop_
 _atom_site_type_symbol
 _atom_site_label
 _atom_site_symmetry_multiplicity
 _atom_site_fract_x
 _atom_site_fract_y
 _atom_site_fract_z
 _atom_site_occupancy
  K  K0  1  0.30916412  0.05680114  0.08239334  1
  K  K1  1  0.63709254  0.56698816  0.40379411  1
  K  K2  1  0.24069089  0.59982522  -0.06213498  1
  K  K3  1  -0.14973446  0.12605300  0.58214613  1
  K  K4  1  0.10830504  0.82823250  0.34930800  1
  K  K5  1  0.26547690  0.28251153  0.49621602  1
  K  K6  1  0.75277035  0.33544902  0.03255336  1
  K  K7  1  0.72636986  0.80346785  0.88704592  1
  B  B8  1  0.08354652  0.60688780  0.56340144  1
  B  B9  1  0.78134278  0.04775234  -0.00254102  1
  B  B10  1  0.23602787  0.32411928  0.00305621  1
  B  B11  1  0.40454408  0.03060321  0.46923619  1
  S  S12  1  0.26059029  0.53546550  0.55275789  1
  S  S13  1  0.37309909  0.80687658  0.05143864  1
  S  S14  1  -0.08761182  0.68413485  0.57927526  1
  S  S15  1  0.25097754  0.84056265  0.83729180  1
  S  S16  1  0.12060333  0.25794192  -0.11364512  1
  S  S17  1  0.53867263  0.11503524  0.38675893  1
  S  S18  1  0.35083839  0.38889987  0.12248195  1
  S  S19  1  0.18988088  0.04078929  0.46173622  1
  S  S20  1  -0.13949101  0.35216946  0.42342139  1
  S  S21  1  0.69227102  0.36159029  0.60138321  1
  S  S22  1  0.93084134  -0.03306752  0.06898177  1
  S  S23  1  0.63596756  0.12453089  0.90911347  1
  S  S24  1  0.67907591  0.57914505  0.00278085  1
  S  S25  1  0.53305409  0.92104253  0.56269766  1
  S  S26  1  0.39598276  0.80301975  0.63378289  1
  S  S27  1  0.87965152  0.61317262  0.11526849  1
