# generated using pymatgen
data_NaIO2
_symmetry_space_group_name_H-M   'P 1'
_cell_length_a   6.38198790
_cell_length_b   6.38201087
_cell_length_c   7.78342729
_cell_angle_alpha   89.99945809
_cell_angle_beta   89.99333976
_cell_angle_gamma   89.99761670
_symmetry_Int_Tables_number   1
_chemical_formula_structural   NaIO2
_chemical_formula_sum   'Na4 I4 O8'
_cell_volume   317.01833846
_cell_formula_units_Z   4
loop_
 _symmetry_equiv_pos_site_id
 _symmetry_equiv_pos_as_xyz
  1  'x, y, z'
loop_
 _atom_site_type_symbol
 _atom_site_label
 _atom_site_symmetry_multiplicity
 _atom_site_fract_x
 _atom_site_fract_y
 _atom_site_fract_z
 _atom_site_occupancy
  Na  Na0  1  0.50002164  0.49998560  0.23163033  1
  Na  Na1  1  0.49997818  0.50001401  0.73162766  1
  Na  Na2  1  -0.00002181  -0.00001261  0.73162560  1
  Na  Na3  1  0.00001030  0.00000988  0.23163072  1
  I  I4  1  -0.00008207  0.49988993  0.53920069  1
  I  I5  1  0.50002942  -0.00004659  0.03928392  1
  I  I6  1  0.00009966  0.50008702  0.03921478  1
  I  I7  1  0.49996294  0.00007572  0.53927277  1
  O  O8  1  0.16242883  0.66204468  0.19668286  1
  O  O9  1  0.83754544  0.33790380  0.19638638  1
  O  O10  1  0.33793413  0.16244906  0.69670775  1
  O  O11  1  0.66207490  0.83753596  0.69650156  1
  O  O12  1  0.16209385  0.66247318  0.69637889  1
  O  O13  1  0.83794238  0.33757989  0.69669776  1
  O  O14  1  0.66244321  0.83793722  0.19667562  1
  O  O15  1  0.33753900  0.16207325  0.19652783  1
