# generated using pymatgen
data_KS2Br
_symmetry_space_group_name_H-M   'P 1'
_cell_length_a   7.19653457
_cell_length_b   7.28544545
_cell_length_c   8.92841839
_cell_angle_alpha   109.90680685
_cell_angle_beta   74.22882365
_cell_angle_gamma   53.23785147
_symmetry_Int_Tables_number   1
_chemical_formula_structural   KS2Br
_chemical_formula_sum   'K2 S4 Br2'
_cell_volume   273.44683400
_cell_formula_units_Z   2
loop_
 _symmetry_equiv_pos_site_id
 _symmetry_equiv_pos_as_xyz
  1  'x, y, z'
loop_
 _atom_site_type_symbol
 _atom_site_label
 _atom_site_symmetry_multiplicity
 _atom_site_fract_x
 _atom_site_fract_y
 _atom_site_fract_z
 _atom_site_occupancy
  K  K0  1  0.14327379  -0.09362261  0.04662587  1
  K  K1  1  0.10764251  -0.17157588  0.52416365  1
  S  S2  1  0.42582916  0.13304987  0.24709552  1
  S  S3  1  0.00440717  0.49766698  0.08342743  1
  S  S4  1  -0.27312607  0.72909016  0.37175797  1
  S  S5  1  0.32890569  0.16226438  0.48334489  1
  Br  Br6  1  0.64292466  0.40697010  0.55145005  1
  Br  Br7  1  0.62014309  0.33615699  0.01835405  1
