# generated using pymatgen
data_LiBrO
_symmetry_space_group_name_H-M   'P 1'
_cell_length_a   6.37475777
_cell_length_b   6.97113623
_cell_length_c   4.93873406
_cell_angle_alpha   90.00311974
_cell_angle_beta   90.00000153
_cell_angle_gamma   90.00000872
_symmetry_Int_Tables_number   1
_chemical_formula_structural   LiBrO
_chemical_formula_sum   'Li4 Br4 O4'
_cell_volume   219.47390825
_cell_formula_units_Z   4
loop_
 _symmetry_equiv_pos_site_id
 _symmetry_equiv_pos_as_xyz
  1  'x, y, z'
loop_
 _atom_site_type_symbol
 _atom_site_label
 _atom_site_symmetry_multiplicity
 _atom_site_fract_x
 _atom_site_fract_y
 _atom_site_fract_z
 _atom_site_occupancy
  Li  Li0  1  0.75000005  0.14032682  0.23968607  1
  Li  Li1  1  0.25000002  0.64038414  0.73964275  1
  Li  Li2  1  0.24999995  -0.14033617  0.23968381  1
  Li  Li3  1  0.74999992  0.35960962  0.73968515  1
  Br  Br4  1  0.74999998  0.90774737  0.64697826  1
  Br  Br5  1  0.25000000  0.40779851  0.14696807  1
  Br  Br6  1  0.25000001  0.09223802  0.64705055  1
  Br  Br7  1  0.75000003  0.59221382  0.14704184  1
  O  O8  1  0.75000001  0.38851755  0.37595686  1
  O  O9  1  0.24999998  0.88858132  0.87589623  1
  O  O10  1  0.25000004  0.61148469  0.37590801  1
  O  O11  1  0.75000001  0.11143430  0.87591112  1
