# generated using pymatgen
data_NaBr5O8
_symmetry_space_group_name_H-M   'P 1'
_cell_length_a   9.73134279
_cell_length_b   9.73050087
_cell_length_c   7.09752484
_cell_angle_alpha   89.99112035
_cell_angle_beta   89.99081971
_cell_angle_gamma   90.00123971
_symmetry_Int_Tables_number   1
_chemical_formula_structural   NaBr5O8
_chemical_formula_sum   'Na2 Br10 O16'
_cell_volume   672.07056830
_cell_formula_units_Z   2
loop_
 _symmetry_equiv_pos_site_id
 _symmetry_equiv_pos_as_xyz
  1  'x, y, z'
loop_
 _atom_site_type_symbol
 _atom_site_label
 _atom_site_symmetry_multiplicity
 _atom_site_fract_x
 _atom_site_fract_y
 _atom_site_fract_z
 _atom_site_occupancy
  Na  Na0  1  0.00006415  -0.00005529  0.00002096  1
  Na  Na1  1  0.50001889  0.49996720  0.50001792  1
  Br  Br2  1  0.00000318  0.73912517  0.42681987  1
  Br  Br3  1  0.76089529  0.50000079  0.07317841  1
  Br  Br4  1  0.00000429  0.26091257  0.42690983  1
  Br  Br5  1  0.23908194  0.49998615  0.07308737  1
  Br  Br6  1  -0.00001683  0.00001275  0.49999549  1
  Br  Br7  1  0.49997867  0.50000789  -0.00000450  1
  Br  Br8  1  0.26089726  -0.00000249  0.57316875  1
  Br  Br9  1  0.50001186  0.23911738  0.92681298  1
  Br  Br10  1  0.73908462  -0.00001012  0.57308745  1
  Br  Br11  1  0.50001023  0.76090720  0.92691249  1
  O  O12  1  0.24668378  0.56392754  0.60222137  1
  O  O13  1  0.24678851  0.43610367  0.60203025  1
  O  O14  1  0.93605037  0.25338793  0.89766737  1
  O  O15  1  0.06386566  0.25310466  0.89812483  1
  O  O16  1  0.06388262  0.74679117  0.89797845  1
  O  O17  1  0.93606612  0.74662349  0.89767469  1
  O  O18  1  0.75332234  0.56392906  0.60225863  1
  O  O19  1  0.75320909  0.43610568  0.60204844  1
  O  O20  1  0.74684562  0.93611793  0.10196167  1
  O  O21  1  0.74669102  0.06393997  0.10223850  1
  O  O22  1  0.43607679  0.75329674  0.39781109  1
  O  O23  1  0.56389720  0.75321945  0.39795973  1
  O  O24  1  0.25340163  0.06393329  0.10234262  1
  O  O25  1  0.25320194  0.93611257  0.10200949  1
  O  O26  1  0.56390163  0.24674442  0.39789790  1
  O  O27  1  0.43608213  0.24669323  0.39776790  1
