# generated using pymatgen
data_Li2SBr
_symmetry_space_group_name_H-M   'P 1'
_cell_length_a   11.40307757
_cell_length_b   4.43590642
_cell_length_c   13.05013722
_cell_angle_alpha   91.15699902
_cell_angle_beta   90.01726777
_cell_angle_gamma   90.05346829
_symmetry_Int_Tables_number   1
_chemical_formula_structural   Li2SBr
_chemical_formula_sum   'Li16 S8 Br8'
_cell_volume   659.97998954
_cell_formula_units_Z   8
loop_
 _symmetry_equiv_pos_site_id
 _symmetry_equiv_pos_as_xyz
  1  'x, y, z'
loop_
 _atom_site_type_symbol
 _atom_site_label
 _atom_site_symmetry_multiplicity
 _atom_site_fract_x
 _atom_site_fract_y
 _atom_site_fract_z
 _atom_site_occupancy
  Li  Li0  1  0.38270678  0.59568803  0.30893667  1
  Li  Li1  1  0.06693955  -0.10677157  0.30924468  1
  Li  Li2  1  0.15779297  0.36369790  0.16497982  1
  Li  Li3  1  0.75326266  0.65045371  0.22232579  1
  Li  Li4  1  0.68308024  0.14668888  0.05988136  1
  Li  Li5  1  0.36716781  0.84560285  0.05877505  1
  Li  Li6  1  0.59224159  0.61662951  0.91548164  1
  Li  Li7  1  -0.00296041  -0.10165243  0.97181245  1
  Li  Li8  1  0.38243458  0.09695384  0.80888818  1
  Li  Li9  1  0.06683324  0.39414724  0.80930396  1
  Li  Li10  1  0.15770742  0.86438377  0.66503273  1
  Li  Li11  1  0.75296577  0.15175653  0.72231637  1
  Li  Li12  1  0.68328480  0.64687258  0.55987663  1
  Li  Li13  1  0.36727731  0.34519050  0.55894035  1
  Li  Li14  1  0.59241181  0.11612261  0.41542363  1
  Li  Li15  1  -0.00256747  0.39785563  0.47195720  1
  S  S16  1  0.23688400  0.86582577  0.20453364  1
  S  S17  1  0.67142792  0.15371004  0.24385331  1
  S  S18  1  0.51310882  0.11817219  0.95475461  1
  S  S19  1  0.07833957  0.40234928  -0.00666657  1
  S  S20  1  0.23669201  0.36654030  0.70444967  1
  S  S21  1  0.67120993  0.65519695  0.74378923  1
  S  S22  1  0.51334193  0.61761655  0.45472684  1
  S  S23  1  0.07870522  -0.09819262  0.49329504  1
  Br  Br24  1  -0.04352339  0.39778241  0.27367243  1
  Br  Br25  1  0.46514678  0.07388313  0.22710995  1
  Br  Br26  1  0.28474884  0.32357320  -0.02309777  1
  Br  Br27  1  0.79327554  0.65117137  0.02402974  1
  Br  Br28  1  -0.04366698  -0.10130200  0.77369076  1
  Br  Br29  1  0.46501897  0.57506759  0.72705461  1
  Br  Br30  1  0.28523345  0.82336120  0.47688622  1
  Br  Br31  1  0.79347876  0.15162506  0.52416964  1
