# generated using pymatgen
data_NaIO6
_symmetry_space_group_name_H-M   'P 1'
_cell_length_a   4.49915703
_cell_length_b   4.49912920
_cell_length_c   6.01201179
_cell_angle_alpha   90.00002838
_cell_angle_beta   90.00002837
_cell_angle_gamma   90.00000517
_symmetry_Int_Tables_number   1
_chemical_formula_structural   NaIO6
_chemical_formula_sum   'Na1 I1 O6'
_cell_volume   121.69687864
_cell_formula_units_Z   1
loop_
 _symmetry_equiv_pos_site_id
 _symmetry_equiv_pos_as_xyz
  1  'x, y, z'
loop_
 _atom_site_type_symbol
 _atom_site_label
 _atom_site_symmetry_multiplicity
 _atom_site_fract_x
 _atom_site_fract_y
 _atom_site_fract_z
 _atom_site_occupancy
  Na  Na0  1  0.50000066  0.49999913  0.50000000  1
  I  I1  1  -0.00000053  -0.00000322  0.50000000  1
  O  O2  1  0.50000029  0.26467238  0.00000074  1
  O  O3  1  0.73532705  0.50000056  -0.00000074  1
  O  O4  1  0.49999952  0.73532993  -0.00000073  1
  O  O5  1  0.26467021  0.49999956  0.00000074  1
  O  O6  1  0.50000209  -0.00000061  0.50000001  1
  O  O7  1  0.00000071  0.50000228  0.50000000  1
