# generated using pymatgen
data_Li2BrO
_symmetry_space_group_name_H-M   'P 1'
_cell_length_a   4.11244081
_cell_length_b   4.12240060
_cell_length_c   7.41442417
_cell_angle_alpha   103.40685993
_cell_angle_beta   76.76391028
_cell_angle_gamma   78.19366540
_symmetry_Int_Tables_number   1
_chemical_formula_structural   Li2BrO
_chemical_formula_sum   'Li4 Br2 O2'
_cell_volume   114.53171035
_cell_formula_units_Z   2
loop_
 _symmetry_equiv_pos_site_id
 _symmetry_equiv_pos_as_xyz
  1  'x, y, z'
loop_
 _atom_site_type_symbol
 _atom_site_label
 _atom_site_symmetry_multiplicity
 _atom_site_fract_x
 _atom_site_fract_y
 _atom_site_fract_z
 _atom_site_occupancy
  Li  Li0  1  0.23935191  -0.23256326  0.82182038  1
  Li  Li1  1  0.49958269  0.16314697  0.07505701  1
  Li  Li2  1  0.09486579  -0.09485818  0.32410346  1
  Li  Li3  1  -0.13044078  0.53588247  0.57288733  1
  Br  Br4  1  -0.11679391  0.54848393  0.07180076  1
  Br  Br5  1  0.43653445  0.10307893  0.57224221  1
  O  O6  1  0.71806845  0.76125915  0.86113468  1
  O  O7  1  0.09216473  0.38223667  0.28398211  1
