# generated using pymatgen
data_Na2(ICl)3
_symmetry_space_group_name_H-M   'P 1'
_cell_length_a   6.14588574
_cell_length_b   5.57093751
_cell_length_c   8.97862437
_cell_angle_alpha   102.28350585
_cell_angle_beta   96.28633996
_cell_angle_gamma   89.77132079
_symmetry_Int_Tables_number   1
_chemical_formula_structural   Na2(ICl)3
_chemical_formula_sum   'Na2 I3 Cl3'
_cell_volume   298.51047419
_cell_formula_units_Z   1
loop_
 _symmetry_equiv_pos_site_id
 _symmetry_equiv_pos_as_xyz
  1  'x, y, z'
loop_
 _atom_site_type_symbol
 _atom_site_label
 _atom_site_symmetry_multiplicity
 _atom_site_fract_x
 _atom_site_fract_y
 _atom_site_fract_z
 _atom_site_occupancy
  Na  Na0  1  0.64329823  0.73697647  0.79134717  1
  Na  Na1  1  0.33657101  0.32295833  0.02943562  1
  I  I2  1  -0.00889335  0.05042618  0.42096538  1
  I  I3  1  -0.02580671  0.51975454  0.33446009  1
  I  I4  1  0.50128939  0.07778141  0.49067579  1
  Cl  Cl5  1  0.02623348  0.48092953  0.81327388  1
  Cl  Cl6  1  0.02957830  -0.01132369  0.81782632  1
  Cl  Cl7  1  0.49772964  -0.17750278  0.05854830  1
