# generated using pymatgen
data_KIN2
_symmetry_space_group_name_H-M   'P 1'
_cell_length_a   5.58068846
_cell_length_b   5.79326911
_cell_length_c   6.74085568
_cell_angle_alpha   90.00012010
_cell_angle_beta   90.00000095
_cell_angle_gamma   90.00000019
_symmetry_Int_Tables_number   1
_chemical_formula_structural   KIN2
_chemical_formula_sum   'K2 I2 N4'
_cell_volume   217.93476314
_cell_formula_units_Z   2
loop_
 _symmetry_equiv_pos_site_id
 _symmetry_equiv_pos_as_xyz
  1  'x, y, z'
loop_
 _atom_site_type_symbol
 _atom_site_label
 _atom_site_symmetry_multiplicity
 _atom_site_fract_x
 _atom_site_fract_y
 _atom_site_fract_z
 _atom_site_occupancy
  K  K0  1  0.00000001  0.49999999  0.50000000  1
  K  K1  1  0.50000000  -0.00000001  0.50000003  1
  I  I2  1  0.50000001  0.00000002  -0.00000002  1
  I  I3  1  -0.00000004  0.50000001  -0.00000002  1
  N  N4  1  -0.00000003  0.00000005  0.26638490  1
  N  N5  1  0.50000001  0.50000005  0.26638487  1
  N  N6  1  0.00000002  -0.00000004  0.73361511  1
  N  N7  1  0.50000003  0.49999994  0.73361513  1
