# generated using pymatgen
data_LiBeBr2
_symmetry_space_group_name_H-M   'P 1'
_cell_length_a   7.37858569
_cell_length_b   4.56557173
_cell_length_c   12.10381470
_cell_angle_alpha   89.99937838
_cell_angle_beta   89.98754482
_cell_angle_gamma   89.99863216
_symmetry_Int_Tables_number   1
_chemical_formula_structural   LiBeBr2
_chemical_formula_sum   'Li4 Be4 Br8'
_cell_volume   407.74679093
_cell_formula_units_Z   4
loop_
 _symmetry_equiv_pos_site_id
 _symmetry_equiv_pos_as_xyz
  1  'x, y, z'
loop_
 _atom_site_type_symbol
 _atom_site_label
 _atom_site_symmetry_multiplicity
 _atom_site_fract_x
 _atom_site_fract_y
 _atom_site_fract_z
 _atom_site_occupancy
  Li  Li0  1  -0.16761409  0.00000360  0.62063541  1
  Li  Li1  1  0.49249038  0.49997420  0.49633694  1
  Li  Li2  1  0.16727505  0.49999865  0.12115807  1
  Li  Li3  1  0.50837632  0.00000003  -0.00343423  1
  Be  Be4  1  -0.01514148  0.23073605  0.43364585  1
  Be  Be5  1  -0.01518879  0.76925480  0.43364127  1
  Be  Be6  1  0.01529283  0.73076099  0.93361094  1
  Be  Be7  1  0.01529820  0.26928173  0.93359788  1
  Br  Br8  1  -0.00019399  0.49999223  0.60477167  1
  Br  Br9  1  0.50621479  -0.00004616  0.58118671  1
  Br  Br10  1  0.78378403  0.00003852  0.85299420  1
  Br  Br11  1  0.23709973  -0.00000118  0.85335331  1
  Br  Br12  1  -0.00071282  0.00001215  0.10487725  1
  Br  Br13  1  0.49349482  0.49998914  0.08150458  1
  Br  Br14  1  0.76300600  0.49997409  0.35332336  1
  Br  Br15  1  0.21651901  0.50003116  0.35324868  1
