# generated using pymatgen
data_Na4I3N
_symmetry_space_group_name_H-M   'P 1'
_cell_length_a   6.41116896
_cell_length_b   6.40437881
_cell_length_c   12.72970342
_cell_angle_alpha   90.00033744
_cell_angle_beta   89.99787430
_cell_angle_gamma   87.07367447
_symmetry_Int_Tables_number   1
_chemical_formula_structural   Na4I3N
_chemical_formula_sum   'Na8 I6 N2'
_cell_volume   521.99438600
_cell_formula_units_Z   2
loop_
 _symmetry_equiv_pos_site_id
 _symmetry_equiv_pos_as_xyz
  1  'x, y, z'
loop_
 _atom_site_type_symbol
 _atom_site_label
 _atom_site_symmetry_multiplicity
 _atom_site_fract_x
 _atom_site_fract_y
 _atom_site_fract_z
 _atom_site_occupancy
  Na  Na0  1  0.00000436  0.50000345  0.96738499  1
  Na  Na1  1  0.49999823  0.00000011  0.96738511  1
  Na  Na2  1  0.49999793  -0.00000916  0.28626486  1
  Na  Na3  1  -0.00000770  0.49998500  0.28623747  1
  Na  Na4  1  0.74971576  0.25026429  0.64794609  1
  Na  Na5  1  0.25027371  0.74975328  0.64794577  1
  Na  Na6  1  0.24996048  0.24999615  0.57037278  1
  Na  Na7  1  0.75004385  0.75001704  0.57037397  1
  I  I8  1  0.24982530  0.75017497  0.12081216  1
  I  I9  1  0.25182441  0.25180689  -0.19355376  1
  I  I10  1  0.50000464  0.50000642  0.39372892  1
  I  I11  1  0.75016935  0.24981259  0.12080860  1
  I  I12  1  0.74818254  0.74816627  -0.19355262  1
  I  I13  1  0.00000475  0.00000489  0.39431614  1
  N  N14  1  0.00000096  0.00000900  0.56078162  1
  N  N15  1  0.50000143  0.50000880  0.56005291  1
