# generated using pymatgen
data_LiSiP3
_symmetry_space_group_name_H-M   'P 1'
_cell_length_a   5.24768437
_cell_length_b   5.24768590
_cell_length_c   10.91147721
_cell_angle_alpha   90.00266291
_cell_angle_beta   89.99723281
_cell_angle_gamma   120.00375243
_symmetry_Int_Tables_number   1
_chemical_formula_structural   LiSiP3
_chemical_formula_sum   'Li2 Si2 P6'
_cell_volume   260.21558048
_cell_formula_units_Z   2
loop_
 _symmetry_equiv_pos_site_id
 _symmetry_equiv_pos_as_xyz
  1  'x, y, z'
loop_
 _atom_site_type_symbol
 _atom_site_label
 _atom_site_symmetry_multiplicity
 _atom_site_fract_x
 _atom_site_fract_y
 _atom_site_fract_z
 _atom_site_occupancy
  Li  Li0  1  0.00000855  -0.00001647  0.16982009  1
  Li  Li1  1  -0.00001768  0.00000764  0.83017940  1
  Si  Si2  1  0.33334424  0.66664985  0.15326557  1
  Si  Si3  1  0.66664872  0.33334285  0.84673443  1
  P  P4  1  -0.11675335  0.59247150  0.66591380  1
  P  P5  1  0.70922034  0.11677005  0.66591037  1
  P  P6  1  0.40754124  0.29076934  0.66590814  1
  P  P7  1  0.11676843  0.70921965  0.33408958  1
  P  P8  1  0.59247143  -0.11675388  0.33408671  1
  P  P9  1  0.29076808  0.40753948  0.33409192  1
