# generated using pymatgen
data_Li2P3O4
_symmetry_space_group_name_H-M   'P 1'
_cell_length_a   7.74766626
_cell_length_b   6.83105243
_cell_length_c   9.38056569
_cell_angle_alpha   88.57311573
_cell_angle_beta   90.10423643
_cell_angle_gamma   97.34519314
_symmetry_Int_Tables_number   1
_chemical_formula_structural   Li2P3O4
_chemical_formula_sum   'Li8 P12 O16'
_cell_volume   492.23658537
_cell_formula_units_Z   4
loop_
 _symmetry_equiv_pos_site_id
 _symmetry_equiv_pos_as_xyz
  1  'x, y, z'
loop_
 _atom_site_type_symbol
 _atom_site_label
 _atom_site_symmetry_multiplicity
 _atom_site_fract_x
 _atom_site_fract_y
 _atom_site_fract_z
 _atom_site_occupancy
  Li  Li0  1  0.34078480  0.10491398  0.72188209  1
  Li  Li1  1  0.80879248  0.77113406  0.33422565  1
  Li  Li2  1  0.68839630  0.21801250  0.84088778  1
  Li  Li3  1  0.16940271  0.88214115  0.21173546  1
  Li  Li4  1  0.58180935  0.84099034  0.82092360  1
  Li  Li5  1  0.00595927  0.47396202  0.23459077  1
  Li  Li6  1  0.47454684  0.48707185  0.75070201  1
  Li  Li7  1  0.99106513  0.08012429  0.36780010  1
  P  P8  1  0.63388580  0.08929349  0.51884719  1
  P  P9  1  0.39679369  -0.08740093  0.42343685  1
  P  P10  1  0.08718252  0.73101481  0.56014678  1
  P  P11  1  -0.13012009  -0.08489380  0.02483770  1
  P  P12  1  0.41270152  0.28259848  0.05299844  1
  P  P13  1  0.10361372  0.09210562  0.91862743  1
  P  P14  1  0.26609941  0.54607601  -0.00639098  1
  P  P15  1  0.74402739  0.59118237  -0.00500990  1
  P  P16  1  0.02399316  0.38648451  0.88094934  1
  P  P17  1  0.22082265  0.45960086  0.50015535  1
  P  P18  1  0.46753185  0.61615517  0.39024626  1
  P  P19  1  0.75358569  0.42125751  0.49405212  1
  O  O20  1  0.45670715  0.25633938  0.89068240  1
  O  O21  1  0.22943632  0.11717906  0.07102257  1
  O  O22  1  0.59848978  0.06393609  0.68120188  1
  O  O23  1  0.78566606  -0.00924212  0.46314305  1
  O  O24  1  0.05005075  -0.21248163  0.39968294  1
  O  O25  1  0.27777539  -0.11749906  0.58013523  1
  O  O26  1  0.71054304  -0.00062578  -0.03706039  1
  O  O27  1  -0.09083730  -0.05258978  0.18400003  1
  O  O28  1  0.59472362  0.55885373  0.53337019  1
  O  O29  1  0.78577043  0.46999324  0.33360450  1
  O  O30  1  0.36651730  0.67850521  0.87961810  1
  O  O31  1  0.18895008  0.64543076  0.11921933  1
  O  O32  1  0.70872342  0.59332845  0.83170122  1
  O  O33  1  -0.11220747  0.42814633  0.02061305  1
  O  O34  1  0.28872413  0.34606493  0.62674711  1
  O  O35  1  0.12009310  0.33283691  0.38667474  1
