# generated using pymatgen
data_Li10IBr
_symmetry_space_group_name_H-M   'P 1'
_cell_length_a   9.93887415
_cell_length_b   9.93889488
_cell_length_c   8.96267270
_cell_angle_alpha   90.00147842
_cell_angle_beta   90.00121565
_cell_angle_gamma   90.00004945
_symmetry_Int_Tables_number   1
_chemical_formula_structural   Li10IBr
_chemical_formula_sum   'Li40 I4 Br4'
_cell_volume   885.34558391
_cell_formula_units_Z   4
loop_
 _symmetry_equiv_pos_site_id
 _symmetry_equiv_pos_as_xyz
  1  'x, y, z'
loop_
 _atom_site_type_symbol
 _atom_site_label
 _atom_site_symmetry_multiplicity
 _atom_site_fract_x
 _atom_site_fract_y
 _atom_site_fract_z
 _atom_site_occupancy
  Li  Li0  1  0.14311168  0.35689182  0.43925919  1
  Li  Li1  1  0.85688788  0.64311577  0.43926207  1
  Li  Li2  1  0.35689259  0.85689338  0.43926304  1
  Li  Li3  1  0.64311602  0.14311733  0.43926019  1
  Li  Li4  1  0.09510276  0.21966584  0.08027756  1
  Li  Li5  1  0.71968233  0.59509923  0.08029327  1
  Li  Li6  1  0.90486195  0.78021344  0.08038534  1
  Li  Li7  1  0.28021428  0.40485461  0.08038239  1
  Li  Li8  1  0.27748534  0.59316115  0.29710462  1
  Li  Li9  1  0.09316635  0.77748596  0.29711620  1
  Li  Li10  1  0.72254196  0.40686807  0.29709346  1
  Li  Li11  1  0.90687749  0.22254544  0.29707774  1
  Li  Li12  1  0.21973302  0.90486785  0.08032743  1
  Li  Li13  1  0.40487603  0.71971354  0.08031838  1
  Li  Li14  1  0.78027225  0.09511619  0.08033960  1
  Li  Li15  1  0.59512345  0.28026804  0.08033483  1
  Li  Li16  1  0.22255455  0.09317051  0.29706358  1
  Li  Li17  1  0.59316340  0.72255646  0.29706139  1
  Li  Li18  1  0.77749145  0.90687921  0.29712262  1
  Li  Li19  1  0.40687940  0.27749057  0.29711930  1
  Li  Li20  1  0.64311551  0.85688912  0.93926410  1
  Li  Li21  1  0.35689126  0.14311403  0.93925828  1
  Li  Li22  1  0.85689553  0.35689445  0.93925909  1
  Li  Li23  1  0.14311936  0.64311927  0.93926246  1
  Li  Li24  1  0.21967201  0.09510019  0.58028745  1
  Li  Li25  1  0.59510070  0.71967311  0.58028657  1
  Li  Li26  1  0.40485071  0.28022444  0.58036886  1
  Li  Li27  1  0.78021507  0.90485472  0.58037435  1
  Li  Li28  1  0.77747851  0.09316762  0.79710405  1
  Li  Li29  1  0.59315386  0.27748304  0.79709851  1
  Li  Li30  1  0.22253808  0.90688071  0.79708699  1
  Li  Li31  1  0.40686805  0.72255119  0.79708008  1
  Li  Li32  1  0.90487035  0.21971416  0.58031337  1
  Li  Li33  1  0.71972923  0.40487256  0.58033266  1
  Li  Li34  1  0.09511511  0.78025690  0.58035492  1
  Li  Li35  1  0.28026537  0.59511520  0.58034015  1
  Li  Li36  1  0.72254581  0.59316318  0.79706823  1
  Li  Li37  1  0.09315845  0.22255550  0.79705642  1
  Li  Li38  1  0.27749104  0.40687256  0.79713199  1
  Li  Li39  1  0.90686648  0.77749333  0.79713297  1
  I  I40  1  0.00000925  0.50002441  0.19046073  1
  I  I41  1  0.50000510  0.00000954  0.19045982  1
  I  I42  1  0.50002334  0.00001066  0.69046058  1
  I  I43  1  0.00001673  0.50002018  0.69046153  1
  Br  Br44  1  0.00000380  -0.00001563  0.19082075  1
  Br  Br45  1  0.49999278  0.49999633  0.19081971  1
  Br  Br46  1  -0.00001857  -0.00000549  0.69081925  1
  Br  Br47  1  0.49999291  0.49999035  0.69081917  1
