# generated using pymatgen
data_K2IBr
_symmetry_space_group_name_H-M   'P 1'
_cell_length_a   5.94354598
_cell_length_b   5.94354547
_cell_length_c   8.41176497
_cell_angle_alpha   90.00001228
_cell_angle_beta   89.99999488
_cell_angle_gamma   90.00000099
_symmetry_Int_Tables_number   1
_chemical_formula_structural   K2IBr
_chemical_formula_sum   'K4 I2 Br2'
_cell_volume   297.15178678
_cell_formula_units_Z   2
loop_
 _symmetry_equiv_pos_site_id
 _symmetry_equiv_pos_as_xyz
  1  'x, y, z'
loop_
 _atom_site_type_symbol
 _atom_site_label
 _atom_site_symmetry_multiplicity
 _atom_site_fract_x
 _atom_site_fract_y
 _atom_site_fract_z
 _atom_site_occupancy
  K  K0  1  0.49999995  0.50000006  -0.00000003  1
  K  K1  1  -0.00000006  -0.00000008  0.00000003  1
  K  K2  1  0.49999996  0.49999999  0.49999995  1
  K  K3  1  0.00000001  0.00000002  0.50000004  1
  I  I4  1  0.50000001  0.00000005  0.74804253  1
  I  I5  1  0.00000001  0.49999996  0.25195747  1
  Br  Br6  1  0.50000007  -0.00000003  0.24736776  1
  Br  Br7  1  0.00000005  0.50000004  0.75263225  1
