# generated using pymatgen
data_KSi35O
_symmetry_space_group_name_H-M   'P 1'
_cell_length_a   8.48305171
_cell_length_b   8.48305171
_cell_length_c   8.48305180
_cell_angle_alpha   90.00000130
_cell_angle_beta   90.00000118
_cell_angle_gamma   90.00000123
_symmetry_Int_Tables_number   1
_chemical_formula_structural   KSi35O
_chemical_formula_sum   'K1 Si35 O1'
_cell_volume   610.45878387
_cell_formula_units_Z   1
loop_
 _symmetry_equiv_pos_site_id
 _symmetry_equiv_pos_as_xyz
  1  'x, y, z'
loop_
 _atom_site_type_symbol
 _atom_site_label
 _atom_site_symmetry_multiplicity
 _atom_site_fract_x
 _atom_site_fract_y
 _atom_site_fract_z
 _atom_site_occupancy
  K  K0  1  0.00000000  -0.00000000  -0.00000000  1
  Si  Si1  1  0.00000000  0.50000000  0.50000000  1
  Si  Si2  1  0.50000000  0.00000000  0.50000000  1
  Si  Si3  1  0.50000000  0.50000000  -0.00000000  1
  Si  Si4  1  0.80017902  0.62539329  0.92889621  1
  Si  Si5  1  0.80017902  0.37460671  0.07110377  1
  Si  Si6  1  0.92889622  0.80017901  0.62539329  1
  Si  Si7  1  0.07110377  0.80017902  0.37460670  1
  Si  Si8  1  0.62539329  0.19982098  0.92889623  1
  Si  Si9  1  0.37460671  0.19982099  0.07110378  1
  Si  Si10  1  0.62539329  0.92889622  0.80017901  1
  Si  Si11  1  0.37460671  0.07110377  0.80017902  1
  Si  Si12  1  0.19982098  0.92889623  0.62539330  1
  Si  Si13  1  0.19982099  0.07110378  0.37460671  1
  Si  Si14  1  0.07110378  0.37460671  0.19982099  1
  Si  Si15  1  0.92889623  0.62539329  0.19982098  1
  Si  Si16  1  0.62539329  0.80017901  0.07110377  1
  Si  Si17  1  0.37460671  0.80017901  0.92889621  1
  Si  Si18  1  0.92889622  0.37460671  0.80017901  1
  Si  Si19  1  0.07110378  0.62539329  0.80017901  1
  Si  Si20  1  0.19982099  0.37460671  0.92889623  1
  Si  Si21  1  0.19982100  0.62539329  0.07110379  1
  Si  Si22  1  0.80017900  0.92889621  0.37460671  1
  Si  Si23  1  0.80017901  0.07110378  0.62539328  1
  Si  Si24  1  0.07110379  0.19982100  0.62539329  1
  Si  Si25  1  0.92889622  0.19982100  0.37460672  1
  Si  Si26  1  0.65896442  0.65896441  0.34103557  1
  Si  Si27  1  0.34103560  0.65896443  0.34103558  1
  Si  Si28  1  0.65896440  0.34103557  0.65896441  1
  Si  Si29  1  0.65896444  0.34103560  0.34103558  1
  Si  Si30  1  0.34103560  0.34103559  0.34103558  1
  Si  Si31  1  0.65896442  0.65896441  0.65896441  1
  Si  Si32  1  0.34103561  0.34103560  0.65896442  1
  Si  Si33  1  0.34103558  0.65896441  0.65896440  1
  Si  Si34  1  0.62539329  0.07110378  0.19982099  1
  Si  Si35  1  0.37460671  0.92889622  0.19982099  1
  O  O36  1  0.49999994  0.49999998  0.50000006  1
