# generated using pymatgen
data_LiP5N2
_symmetry_space_group_name_H-M   'P 1'
_cell_length_a   8.95310376
_cell_length_b   8.95320523
_cell_length_c   6.72348993
_cell_angle_alpha   90.00011737
_cell_angle_beta   90.00014654
_cell_angle_gamma   90.00002592
_symmetry_Int_Tables_number   1
_chemical_formula_structural   LiP5N2
_chemical_formula_sum   'Li4 P20 N8'
_cell_volume   538.94806394
_cell_formula_units_Z   4
loop_
 _symmetry_equiv_pos_site_id
 _symmetry_equiv_pos_as_xyz
  1  'x, y, z'
loop_
 _atom_site_type_symbol
 _atom_site_label
 _atom_site_symmetry_multiplicity
 _atom_site_fract_x
 _atom_site_fract_y
 _atom_site_fract_z
 _atom_site_occupancy
  Li  Li0  1  0.35091974  0.35091888  0.49999984  1
  Li  Li1  1  0.64908392  0.64907793  -0.00000171  1
  Li  Li2  1  0.14908150  0.85092092  0.75000247  1
  Li  Li3  1  0.85091736  0.14907961  0.25000257  1
  P  P4  1  0.22921557  0.22022053  0.16996853  1
  P  P5  1  0.43978487  0.43977388  0.00000200  1
  P  P6  1  0.22022139  0.22921902  0.83003057  1
  P  P7  1  0.77977691  0.77078393  0.33003338  1
  P  P8  1  0.56022298  0.56021928  0.49999899  1
  P  P9  1  0.77078442  0.77978179  0.66997214  1
  P  P10  1  0.72921311  0.27977977  0.58002844  1
  P  P11  1  0.93978087  0.06022039  0.74999783  1
  P  P12  1  0.72022193  0.27078639  0.91996820  1
  P  P13  1  -0.03842821  0.39414924  0.55978087  1
  P  P14  1  0.10584564  0.46157208  0.80978313  1
  P  P15  1  0.89414768  0.53842723  0.30978458  1
  P  P16  1  0.03842513  0.60584669  0.05978505  1
  P  P17  1  0.27078046  0.72022018  0.08003068  1
  P  P18  1  0.06021987  0.93977595  0.24999832  1
  P  P19  1  0.27977878  0.72921997  0.41996742  1
  P  P20  1  0.60585192  0.03842894  0.94021803  1
  P  P21  1  0.53842715  0.89415410  0.69021866  1
  P  P22  1  0.46157435  0.10585151  0.19021593  1
  P  P23  1  0.39415376  -0.03842609  0.44021455  1
  N  N24  1  0.11667685  0.08009141  0.78473524  1
  N  N25  1  0.08008795  0.11668061  0.21526067  1
  N  N26  1  0.91990783  0.88332142  0.71526666  1
  N  N27  1  0.88331904  0.91991155  0.28474178  1
  N  N28  1  0.58009066  0.38331763  0.53473657  1
  N  N29  1  0.61668059  0.41990825  0.96526069  1
  N  N30  1  0.41991249  0.61667775  0.03473574  1
  N  N31  1  0.38332350  0.58008929  0.46526220  1
