# generated using pymatgen
data_Na4I6O5
_symmetry_space_group_name_H-M   'P 1'
_cell_length_a   6.80124940
_cell_length_b   8.50616687
_cell_length_c   7.77477331
_cell_angle_alpha   90.02347000
_cell_angle_beta   90.00345533
_cell_angle_gamma   90.00630697
_symmetry_Int_Tables_number   1
_chemical_formula_structural   Na4I6O5
_chemical_formula_sum   'Na4 I6 O5'
_cell_volume   449.79051662
_cell_formula_units_Z   1
loop_
 _symmetry_equiv_pos_site_id
 _symmetry_equiv_pos_as_xyz
  1  'x, y, z'
loop_
 _atom_site_type_symbol
 _atom_site_label
 _atom_site_symmetry_multiplicity
 _atom_site_fract_x
 _atom_site_fract_y
 _atom_site_fract_z
 _atom_site_occupancy
  Na  Na0  1  0.24976244  0.23340982  0.49878533  1
  Na  Na1  1  0.24958430  0.76656911  0.50121094  1
  Na  Na2  1  0.75038071  0.23343176  0.50115264  1
  Na  Na3  1  0.75022367  0.76658547  0.49884481  1
  I  I4  1  0.49997738  0.50005831  0.75088140  1
  I  I5  1  0.50001162  0.49993773  0.24910874  1
  I  I6  1  0.50002594  0.00000541  0.74517622  1
  I  I7  1  -0.00002748  0.50011204  0.75144888  1
  I  I8  1  0.49998727  -0.00001803  0.25485540  1
  I  I9  1  0.00001444  0.49988301  0.24855256  1
  O  O10  1  -0.00036561  0.92523078  0.67260269  1
  O  O11  1  0.00040151  0.07525090  0.67251758  1
  O  O12  1  0.00004420  0.00002254  0.00004322  1
  O  O13  1  0.00025290  0.92474782  0.32746681  1
  O  O14  1  -0.00027330  0.07477333  0.32735279  1
