# generated using pymatgen
data_K2CBr
_symmetry_space_group_name_H-M   'P 1'
_cell_length_a   7.89746748
_cell_length_b   8.00674983
_cell_length_c   7.92044453
_cell_angle_alpha   90.00000357
_cell_angle_beta   90.00000275
_cell_angle_gamma   90.00000069
_symmetry_Int_Tables_number   1
_chemical_formula_structural   K2CBr
_chemical_formula_sum   'K8 C4 Br4'
_cell_volume   500.83383609
_cell_formula_units_Z   4
loop_
 _symmetry_equiv_pos_site_id
 _symmetry_equiv_pos_as_xyz
  1  'x, y, z'
loop_
 _atom_site_type_symbol
 _atom_site_label
 _atom_site_symmetry_multiplicity
 _atom_site_fract_x
 _atom_site_fract_y
 _atom_site_fract_z
 _atom_site_occupancy
  K  K0  1  0.79317197  0.80984006  0.02287282  1
  K  K1  1  0.20682810  0.80984001  0.47712718  1
  K  K2  1  0.29317197  0.69015993  0.97712714  1
  K  K3  1  0.70682810  0.69015999  0.52287286  1
  K  K4  1  0.20682803  0.19015994  0.97712718  1
  K  K5  1  0.79317190  0.19015999  0.52287282  1
  K  K6  1  0.70682803  0.30984006  0.02287286  1
  K  K7  1  0.29317190  0.30984002  0.47712714  1
  C  C8  1  0.00000003  0.03335527  0.25000005  1
  C  C9  1  0.50000003  0.46664475  0.74999995  1
  C  C10  1  -0.00000003  0.96664473  0.74999995  1
  C  C11  1  0.49999998  0.53335525  0.25000005  1
  Br  Br12  1  0.50000000  0.02187658  0.24999998  1
  Br  Br13  1  0.00000001  0.47812341  0.75000002  1
  Br  Br14  1  0.49999999  0.97812342  0.75000002  1
  Br  Br15  1  -0.00000001  0.52187659  0.24999999  1
