# generated using pymatgen
data_NaIO
_symmetry_space_group_name_H-M   'P 1'
_cell_length_a   6.26030596
_cell_length_b   6.26030569
_cell_length_c   9.65155863
_cell_angle_alpha   90.00000306
_cell_angle_beta   90.00000342
_cell_angle_gamma   89.99990310
_symmetry_Int_Tables_number   1
_chemical_formula_structural   NaIO
_chemical_formula_sum   'Na4 I4 O4'
_cell_volume   378.25837462
_cell_formula_units_Z   4
loop_
 _symmetry_equiv_pos_site_id
 _symmetry_equiv_pos_as_xyz
  1  'x, y, z'
loop_
 _atom_site_type_symbol
 _atom_site_label
 _atom_site_symmetry_multiplicity
 _atom_site_fract_x
 _atom_site_fract_y
 _atom_site_fract_z
 _atom_site_occupancy
  Na  Na0  1  0.00000000  0.00000000  -0.00000000  1
  Na  Na1  1  0.50000000  0.50000000  0.00000000  1
  Na  Na2  1  0.00000018  -0.00000007  0.50000001  1
  Na  Na3  1  0.49999982  0.50000006  0.49999999  1
  I  I4  1  0.49999977  -0.00000016  0.50000000  1
  I  I5  1  -0.00000000  0.49999999  0.00000000  1
  I  I6  1  0.00000024  0.50000016  0.50000000  1
  I  I7  1  0.50000000  0.00000001  -0.00000000  1
  O  O8  1  0.24999999  0.25000001  0.50000000  1
  O  O9  1  0.25000000  0.75000000  0.50000000  1
  O  O10  1  0.75000000  0.75000001  0.50000000  1
  O  O11  1  0.75000000  0.25000000  0.50000000  1
