# generated using pymatgen
data_LiIO
_symmetry_space_group_name_H-M   'P 1'
_cell_length_a   5.36315152
_cell_length_b   5.36315005
_cell_length_c   3.85459119
_cell_angle_alpha   90.00000411
_cell_angle_beta   90.00000116
_cell_angle_gamma   89.99999968
_symmetry_Int_Tables_number   1
_chemical_formula_structural   LiIO
_chemical_formula_sum   'Li2 I2 O2'
_cell_volume   110.87109561
_cell_formula_units_Z   2
loop_
 _symmetry_equiv_pos_site_id
 _symmetry_equiv_pos_as_xyz
  1  'x, y, z'
loop_
 _atom_site_type_symbol
 _atom_site_label
 _atom_site_symmetry_multiplicity
 _atom_site_fract_x
 _atom_site_fract_y
 _atom_site_fract_z
 _atom_site_occupancy
  Li  Li0  1  0.50000000  0.50000000  -0.00000004  1
  Li  Li1  1  -0.00000000  0.00000001  0.00000004  1
  I  I2  1  0.00000000  0.50000000  0.49974603  1
  I  I3  1  0.50000001  0.00000000  0.50025397  1
  O  O4  1  -0.00000000  0.00000000  0.50000004  1
  O  O5  1  0.50000000  0.50000000  0.49999996  1
