# generated using pymatgen
data_K4CI3
_symmetry_space_group_name_H-M   'P 1'
_cell_length_a   8.42191154
_cell_length_b   8.42191478
_cell_length_c   8.49725548
_cell_angle_alpha   90.00000644
_cell_angle_beta   89.99999869
_cell_angle_gamma   89.99999413
_symmetry_Int_Tables_number   1
_chemical_formula_structural   K4CI3
_chemical_formula_sum   'K8 C2 I6'
_cell_volume   602.69861546
_cell_formula_units_Z   2
loop_
 _symmetry_equiv_pos_site_id
 _symmetry_equiv_pos_as_xyz
  1  'x, y, z'
loop_
 _atom_site_type_symbol
 _atom_site_label
 _atom_site_symmetry_multiplicity
 _atom_site_fract_x
 _atom_site_fract_y
 _atom_site_fract_z
 _atom_site_occupancy
  K  K0  1  0.23989793  0.76008303  0.50162065  1
  K  K1  1  0.76010208  0.23991696  0.50162069  1
  K  K2  1  0.75983999  0.75982832  0.99846630  1
  K  K3  1  0.24016000  0.24017167  0.99846609  1
  K  K4  1  0.76008294  0.76010196  0.49837931  1
  K  K5  1  0.23991709  0.23989807  0.49837917  1
  K  K6  1  0.24017178  0.75983997  0.00153377  1
  K  K7  1  0.75982821  0.24016003  0.00153364  1
  C  C8  1  -0.00000003  0.00000015  0.74992825  1
  C  C9  1  0.00000000  -0.00000019  0.25007229  1
  I  I10  1  0.49999998  -0.00000003  0.75010527  1
  I  I11  1  0.50000001  0.49999997  0.74967027  1
  I  I12  1  0.00000001  0.50000008  0.75056865  1
  I  I13  1  -0.00000000  0.49999990  0.24989463  1
  I  I14  1  0.50000001  0.50000004  0.25032969  1
  I  I15  1  0.50000000  0.00000005  0.24943132  1
