# generated using pymatgen
data_LiICl4
_symmetry_space_group_name_H-M   'P 1'
_cell_length_a   8.26760944
_cell_length_b   7.27660321
_cell_length_c   7.14017782
_cell_angle_alpha   89.99992353
_cell_angle_beta   89.99996824
_cell_angle_gamma   90.00001962
_symmetry_Int_Tables_number   1
_chemical_formula_structural   LiICl4
_chemical_formula_sum   'Li2 I2 Cl8'
_cell_volume   429.55390748
_cell_formula_units_Z   2
loop_
 _symmetry_equiv_pos_site_id
 _symmetry_equiv_pos_as_xyz
  1  'x, y, z'
loop_
 _atom_site_type_symbol
 _atom_site_label
 _atom_site_symmetry_multiplicity
 _atom_site_fract_x
 _atom_site_fract_y
 _atom_site_fract_z
 _atom_site_occupancy
  Li  Li0  1  0.49999998  0.00000013  0.00000034  1
  Li  Li1  1  -0.00000012  0.50000015  0.49999966  1
  I  I2  1  0.50000019  0.00000004  0.49999831  1
  I  I3  1  0.00000021  0.49999999  0.00000173  1
  Cl  Cl4  1  0.49921798  0.76123712  0.24230558  1
  Cl  Cl5  1  0.50078320  0.76123664  0.75769566  1
  Cl  Cl6  1  0.50078195  0.23876254  0.24230480  1
  Cl  Cl7  1  0.49921673  0.23876341  0.75769460  1
  Cl  Cl8  1  -0.00078331  0.26123651  0.74230466  1
  Cl  Cl9  1  0.00078198  0.26123731  0.25769596  1
  Cl  Cl10  1  0.00078324  0.73876335  0.74230381  1
  Cl  Cl11  1  -0.00078205  0.73876280  0.25769490  1
