# generated using pymatgen
data_KBr8N
_symmetry_space_group_name_H-M   'P 1'
_cell_length_a   8.34812471
_cell_length_b   10.64547738
_cell_length_c   5.14521813
_cell_angle_alpha   86.02105912
_cell_angle_beta   106.02961319
_cell_angle_gamma   98.72433141
_symmetry_Int_Tables_number   1
_chemical_formula_structural   KBr8N
_chemical_formula_sum   'K1 Br8 N1'
_cell_volume   434.20886699
_cell_formula_units_Z   1
loop_
 _symmetry_equiv_pos_site_id
 _symmetry_equiv_pos_as_xyz
  1  'x, y, z'
loop_
 _atom_site_type_symbol
 _atom_site_label
 _atom_site_symmetry_multiplicity
 _atom_site_fract_x
 _atom_site_fract_y
 _atom_site_fract_z
 _atom_site_occupancy
  K  K0  1  0.43409781  0.43133572  0.36838001  1
  Br  Br1  1  0.15504544  0.38422951  0.73806720  1
  Br  Br2  1  0.88408783  0.92731132  0.22872970  1
  Br  Br3  1  0.72503890  0.40900334  -0.00346620  1
  Br  Br4  1  0.61648409  0.20341852  0.18891414  1
  Br  Br5  1  0.16105952  0.67334582  -0.06610753  1
  Br  Br6  1  0.47234962  0.72269339  0.08725921  1
  Br  Br7  1  0.14178716  0.14500965  0.61790769  1
  Br  Br8  1  0.82599736  0.63193592  -0.22454573  1
  N  N9  1  0.08405228  -0.02828318  0.47111152  1
