# generated using pymatgen
data_Na3(SCl3)2
_symmetry_space_group_name_H-M   'P 1'
_cell_length_a   7.67970002
_cell_length_b   7.67970016
_cell_length_c   10.17793726
_cell_angle_alpha   90.01380816
_cell_angle_beta   90.01392956
_cell_angle_gamma   89.99984606
_symmetry_Int_Tables_number   1
_chemical_formula_structural   Na3(SCl3)2
_chemical_formula_sum   'Na6 S4 Cl12'
_cell_volume   600.27224572
_cell_formula_units_Z   2
loop_
 _symmetry_equiv_pos_site_id
 _symmetry_equiv_pos_as_xyz
  1  'x, y, z'
loop_
 _atom_site_type_symbol
 _atom_site_label
 _atom_site_symmetry_multiplicity
 _atom_site_fract_x
 _atom_site_fract_y
 _atom_site_fract_z
 _atom_site_occupancy
  Na  Na0  1  -0.00000769  0.00000764  0.49999995  1
  Na  Na1  1  0.50000767  0.49999236  0.49999992  1
  Na  Na2  1  0.74999998  0.25000010  0.00000031  1
  Na  Na3  1  0.25000011  0.25000001  -0.00000012  1
  Na  Na4  1  0.25000004  0.74999993  0.00000022  1
  Na  Na5  1  0.74999988  0.75000001  -0.00000028  1
  S  S6  1  0.50003993  0.00003963  0.29129226  1
  S  S7  1  -0.00003992  0.49996028  0.70870871  1
  S  S8  1  0.49998481  -0.00001503  0.09425894  1
  S  S9  1  0.00001521  0.50001499  -0.09425979  1
  Cl  Cl10  1  0.78140587  0.71849891  0.66804502  1
  Cl  Cl11  1  0.21848821  0.71848877  0.66802235  1
  Cl  Cl12  1  0.21849824  0.28140595  0.66804492  1
  Cl  Cl13  1  0.78139651  0.28139649  0.66806688  1
  Cl  Cl14  1  0.71859469  0.78150107  0.33195494  1
  Cl  Cl15  1  0.28151120  0.78151117  0.33197746  1
  Cl  Cl16  1  0.28150119  0.21859402  0.33195514  1
  Cl  Cl17  1  0.71860407  0.21860348  0.33193309  1
  Cl  Cl18  1  0.49986096  0.49991569  0.12622418  1
  Cl  Cl19  1  0.00013910  0.00008399  0.87377842  1
  Cl  Cl20  1  0.50008516  0.50013780  0.87377586  1
  Cl  Cl21  1  -0.00008520  -0.00013728  0.12622162  1
