# generated using pymatgen
data_Li4C3Cl10
_symmetry_space_group_name_H-M   'P 1'
_cell_length_a   10.83144888
_cell_length_b   11.49359530
_cell_length_c   6.80615351
_cell_angle_alpha   90.15938338
_cell_angle_beta   92.36585803
_cell_angle_gamma   81.81102282
_symmetry_Int_Tables_number   1
_chemical_formula_structural   Li4C3Cl10
_chemical_formula_sum   'Li8 C6 Cl20'
_cell_volume   837.95513879
_cell_formula_units_Z   2
loop_
 _symmetry_equiv_pos_site_id
 _symmetry_equiv_pos_as_xyz
  1  'x, y, z'
loop_
 _atom_site_type_symbol
 _atom_site_label
 _atom_site_symmetry_multiplicity
 _atom_site_fract_x
 _atom_site_fract_y
 _atom_site_fract_z
 _atom_site_occupancy
  Li  Li0  1  0.59380826  0.40087039  0.31266312  1
  Li  Li1  1  0.73178083  0.63604836  0.19988255  1
  Li  Li2  1  0.37852533  0.64943311  0.92401671  1
  Li  Li3  1  0.61838902  0.39424357  0.77699094  1
  Li  Li4  1  0.78335451  0.13763798  0.22771287  1
  Li  Li5  1  0.01452869  0.83747329  0.02667441  1
  Li  Li6  1  -0.13577744  0.11677879  0.64249083  1
  Li  Li7  1  0.74529215  0.88604066  0.84279347  1
  C  C8  1  0.39499658  -0.00317137  0.79947811  1
  C  C9  1  0.07510628  0.42407919  0.02886152  1
  C  C10  1  0.55541336  0.53213718  0.55216792  1
  C  C11  1  0.40023659  -0.00051176  -0.00201456  1
  C  C12  1  0.06495737  0.47636462  0.20703065  1
  C  C13  1  -0.11801628  -0.01185978  0.41936127  1
  Cl  Cl14  1  0.85027603  0.72061093  -0.00926511  1
  Cl  Cl15  1  0.43100607  0.27946905  0.29489258  1
  Cl  Cl16  1  0.20605244  0.77623368  0.91676062  1
  Cl  Cl17  1  0.74878757  0.28107029  0.52343341  1
  Cl  Cl18  1  0.26029397  0.02926300  0.66277449  1
  Cl  Cl19  1  0.52556609  -0.04403270  0.66526125  1
  Cl  Cl20  1  0.68270323  0.61972403  0.54663895  1
  Cl  Cl21  1  0.03412229  -0.08278716  0.37294645  1
  Cl  Cl22  1  0.56993389  0.55130926  0.05048206  1
  Cl  Cl23  1  -0.01982207  0.32393672  -0.04748992  1
  Cl  Cl24  1  0.18023493  0.45461919  0.86400928  1
  Cl  Cl25  1  0.15754158  0.57517767  0.28795240  1
  Cl  Cl26  1  0.61689475  0.24884029  0.03132799  1
  Cl  Cl27  1  0.87502668  0.02619820  -0.06009959  1
  Cl  Cl28  1  0.53669570  0.95473502  0.13245059  1
  Cl  Cl29  1  0.27285193  0.04481240  0.12901680  1
  Cl  Cl30  1  0.95407036  0.44614625  0.36487669  1
  Cl  Cl31  1  0.31417142  0.31200165  0.52730032  1
  Cl  Cl32  1  0.41439383  0.63186671  0.56996544  1
  Cl  Cl33  1  -0.21339597  0.87524127  0.46865550  1
