# generated using pymatgen
data_K2ICl
_symmetry_space_group_name_H-M   'P 1'
_cell_length_a   8.31071678
_cell_length_b   8.31071682
_cell_length_c   8.31071689
_cell_angle_alpha   90.00000096
_cell_angle_beta   90.00000005
_cell_angle_gamma   90.00000060
_symmetry_Int_Tables_number   1
_chemical_formula_structural   K2ICl
_chemical_formula_sum   'K8 I4 Cl4'
_cell_volume   574.00470848
_cell_formula_units_Z   4
loop_
 _symmetry_equiv_pos_site_id
 _symmetry_equiv_pos_as_xyz
  1  'x, y, z'
loop_
 _atom_site_type_symbol
 _atom_site_label
 _atom_site_symmetry_multiplicity
 _atom_site_fract_x
 _atom_site_fract_y
 _atom_site_fract_z
 _atom_site_occupancy
  K  K0  1  0.50000000  0.49999999  0.50000000  1
  K  K1  1  0.50000001  -0.00000001  -0.00000000  1
  K  K2  1  0.00000000  0.00000001  0.49999999  1
  K  K3  1  0.00000000  0.49999999  -0.00000000  1
  K  K4  1  0.75000000  0.25000000  0.75000001  1
  K  K5  1  0.25000001  0.75000000  0.74999999  1
  K  K6  1  0.75000000  0.74999999  0.25000001  1
  K  K7  1  0.25000000  0.25000002  0.25000000  1
  I  I8  1  -0.00000000  0.00000000  0.00000000  1
  I  I9  1  -0.00000000  0.50000000  0.50000000  1
  I  I10  1  0.50000000  0.50000000  0.00000000  1
  I  I11  1  0.50000000  0.00000000  0.50000000  1
  Cl  Cl12  1  0.74999999  0.75000000  0.75000000  1
  Cl  Cl13  1  0.25000000  0.25000000  0.75000000  1
  Cl  Cl14  1  0.74999999  0.25000000  0.25000000  1
  Cl  Cl15  1  0.24999999  0.75000000  0.25000000  1
