# generated using pymatgen
data_K2IN
_symmetry_space_group_name_H-M   'P 1'
_cell_length_a   8.06003526
_cell_length_b   8.06000333
_cell_length_c   8.05983748
_cell_angle_alpha   90.00034119
_cell_angle_beta   89.99966185
_cell_angle_gamma   90.00073731
_symmetry_Int_Tables_number   1
_chemical_formula_structural   K2IN
_chemical_formula_sum   'K8 I4 N4'
_cell_volume   523.59856457
_cell_formula_units_Z   4
loop_
 _symmetry_equiv_pos_site_id
 _symmetry_equiv_pos_as_xyz
  1  'x, y, z'
loop_
 _atom_site_type_symbol
 _atom_site_label
 _atom_site_symmetry_multiplicity
 _atom_site_fract_x
 _atom_site_fract_y
 _atom_site_fract_z
 _atom_site_occupancy
  K  K0  1  0.25000275  0.24999388  0.75000265  1
  K  K1  1  0.75000091  0.24999331  0.24999737  1
  K  K2  1  0.25000197  0.75000630  0.24999703  1
  K  K3  1  0.75000042  0.75000648  0.75000309  1
  K  K4  1  0.24999909  0.75000669  0.75000263  1
  K  K5  1  0.74999724  0.75000612  0.24999735  1
  K  K6  1  0.24999959  0.24999352  0.24999692  1
  K  K7  1  0.74999803  0.24999370  0.75000298  1
  I  I8  1  0.50000000  0.00000000  0.00000000  1
  I  I9  1  0.00000000  -0.00000000  0.50000000  1
  I  I10  1  0.50000000  0.50000000  0.50000000  1
  I  I11  1  0.00000000  0.50000000  -0.00000000  1
  N  N12  1  0.00000000  -0.00000000  -0.00000000  1
  N  N13  1  0.50000000  0.50000000  -0.00000000  1
  N  N14  1  0.50000000  -0.00000000  0.50000000  1
  N  N15  1  -0.00000000  0.50000000  0.50000000  1
