# generated using pymatgen
data_KBr3Cl16
_symmetry_space_group_name_H-M   'P 1'
_cell_length_a   10.21932334
_cell_length_b   10.21930861
_cell_length_c   10.21925501
_cell_angle_alpha   89.99999535
_cell_angle_beta   89.99998568
_cell_angle_gamma   89.99999632
_symmetry_Int_Tables_number   1
_chemical_formula_structural   KBr3Cl16
_chemical_formula_sum   'K2 Br6 Cl32'
_cell_volume   1067.24195963
_cell_formula_units_Z   2
loop_
 _symmetry_equiv_pos_site_id
 _symmetry_equiv_pos_as_xyz
  1  'x, y, z'
loop_
 _atom_site_type_symbol
 _atom_site_label
 _atom_site_symmetry_multiplicity
 _atom_site_fract_x
 _atom_site_fract_y
 _atom_site_fract_z
 _atom_site_occupancy
  K  K0  1  0.50000002  0.50000000  0.49999999  1
  K  K1  1  -0.00000001  0.00000000  0.00000000  1
  Br  Br2  1  -0.00000000  0.50000000  0.49999993  1
  Br  Br3  1  0.50000001  0.00000000  -0.00000008  1
  Br  Br4  1  -0.00000008  0.50000001  0.00000007  1
  Br  Br5  1  0.49999993  0.00000001  0.50000005  1
  Br  Br6  1  0.00000007  -0.00000001  0.50000001  1
  Br  Br7  1  0.50000007  0.49999999  0.00000001  1
  Cl  Cl8  1  0.25476760  0.49999972  0.25477368  1
  Cl  Cl9  1  0.25477045  0.25477860  0.50000112  1
  Cl  Cl10  1  0.24522436  0.24522521  -0.00000110  1
  Cl  Cl11  1  0.49999970  0.25477132  0.25476972  1
  Cl  Cl12  1  0.00000031  0.24523067  0.24522718  1
  Cl  Cl13  1  0.24999758  0.25000288  0.24999743  1
  Cl  Cl14  1  0.24522581  0.00000029  0.24522311  1
  Cl  Cl15  1  0.49999968  0.74522859  0.25476942  1
  Cl  Cl16  1  0.25476758  0.50000031  0.74522666  1
  Cl  Cl17  1  0.50000031  0.25477139  0.74523072  1
  Cl  Cl18  1  0.74523240  0.49999971  0.25477341  1
  Cl  Cl19  1  0.74522942  0.25477858  0.49999996  1
  Cl  Cl20  1  0.75000256  0.25000278  0.75000222  1
  Cl  Cl21  1  0.75477560  0.24522515  0.00000004  1
  Cl  Cl22  1  0.25477054  0.74522136  0.49999999  1
  Cl  Cl23  1  -0.00000032  0.24523072  0.75477241  1
  Cl  Cl24  1  0.24999743  0.25000327  0.75000258  1
  Cl  Cl25  1  0.24522586  -0.00000030  0.75477634  1
  Cl  Cl26  1  0.24999739  0.74999673  0.75000251  1
  Cl  Cl27  1  0.24522438  0.75477477  0.00000002  1
  Cl  Cl28  1  0.24999772  0.74999714  0.24999749  1
  Cl  Cl29  1  0.00000032  0.75476934  0.24522763  1
  Cl  Cl30  1  0.75000228  0.74999730  0.24999777  1
  Cl  Cl31  1  0.75000243  0.25000272  0.24999778  1
  Cl  Cl32  1  0.75477423  0.00000030  0.24522360  1
  Cl  Cl33  1  0.74522942  0.74522144  0.49999891  1
  Cl  Cl34  1  0.75477554  0.75477485  0.00000108  1
  Cl  Cl35  1  0.50000031  0.74522864  0.74523031  1
  Cl  Cl36  1  0.74523250  0.50000029  0.74522621  1
  Cl  Cl37  1  -0.00000032  0.75476927  0.75477282  1
  Cl  Cl38  1  0.75000260  0.74999723  0.75000222  1
  Cl  Cl39  1  0.75477431  -0.00000028  0.75477679  1
