# generated using pymatgen
data_Li6Br4O
_symmetry_space_group_name_H-M   'P 1'
_cell_length_a   9.18338846
_cell_length_b   9.18386492
_cell_length_c   12.73295673
_cell_angle_alpha   89.99529703
_cell_angle_beta   90.01538123
_cell_angle_gamma   90.00318885
_symmetry_Int_Tables_number   1
_chemical_formula_structural   Li6Br4O
_chemical_formula_sum   'Li24 Br16 O4'
_cell_volume   1073.88478269
_cell_formula_units_Z   4
loop_
 _symmetry_equiv_pos_site_id
 _symmetry_equiv_pos_as_xyz
  1  'x, y, z'
loop_
 _atom_site_type_symbol
 _atom_site_label
 _atom_site_symmetry_multiplicity
 _atom_site_fract_x
 _atom_site_fract_y
 _atom_site_fract_z
 _atom_site_occupancy
  Li  Li0  1  0.49997556  -0.00005305  0.37421048  1
  Li  Li1  1  -0.00007783  0.50002779  0.12542988  1
  Li  Li2  1  0.00005540  0.50009004  0.62542814  1
  Li  Li3  1  0.49995446  -0.00007122  -0.12578597  1
  Li  Li4  1  0.50005682  0.00017717  0.13817816  1
  Li  Li5  1  0.00016536  0.50015072  0.86137296  1
  Li  Li6  1  -0.00010617  0.49980070  0.36135538  1
  Li  Li7  1  0.49984278  -0.00010534  0.63818878  1
  Li  Li8  1  0.15745172  -0.02983471  0.07557720  1
  Li  Li9  1  0.02962332  0.15747138  0.92468538  1
  Li  Li10  1  0.84259803  0.02947593  0.07575166  1
  Li  Li11  1  -0.02981352  0.84259060  0.92458433  1
  Li  Li12  1  0.55507551  0.34790109  0.92763765  1
  Li  Li13  1  0.34788494  0.44445017  0.07274856  1
  Li  Li14  1  0.44462040  0.65194837  0.92770478  1
  Li  Li15  1  0.65217297  0.55527753  0.07260136  1
  Li  Li16  1  0.34248186  0.52985190  0.42466476  1
  Li  Li17  1  0.47041521  0.34250678  0.57564447  1
  Li  Li18  1  0.65748519  0.47054665  0.42455411  1
  Li  Li19  1  0.52966544  0.65741384  0.57574792  1
  Li  Li20  1  -0.05526204  0.15224677  0.57274160  1
  Li  Li21  1  0.15199272  0.05532240  0.42756934  1
  Li  Li22  1  0.05559890  0.84796158  0.57268233  1
  Li  Li23  1  0.84788561  -0.05512706  0.42777396  1
  Br  Br24  1  0.01323264  0.27874792  0.74541660  1
  Br  Br25  1  0.22133288  0.51269418  0.24539128  1
  Br  Br26  1  -0.01289639  0.72137178  0.74532878  1
  Br  Br27  1  0.77866196  0.48666621  0.24533497  1
  Br  Br28  1  0.35630054  0.15170332  0.00791820  1
  Br  Br29  1  0.15205515  0.64342874  -0.00840121  1
  Br  Br30  1  0.84808957  0.35709074  -0.00865064  1
  Br  Br31  1  0.64346756  0.84819546  0.00810091  1
  Br  Br32  1  0.48986991  0.22132290  0.75462935  1
  Br  Br33  1  0.27861760  -0.00979504  0.25466731  1
  Br  Br34  1  0.50991752  0.77853981  0.75468976  1
  Br  Br35  1  0.72143649  0.01029129  0.25469372  1
  Br  Br36  1  0.14334269  0.34803540  0.49153662  1
  Br  Br37  1  0.34816878  0.85622274  0.50785967  1
  Br  Br38  1  0.65165127  0.14334890  0.50812551  1
  Br  Br39  1  0.85702777  0.65206349  0.49137853  1
  O  O40  1  -0.00008970  0.00002283  0.00017136  1
  O  O41  1  0.49991390  0.49988410  0.00025643  1
  O  O42  1  0.50010433  0.50002612  0.50020990  1
  O  O43  1  0.00005287  0.00011911  0.50029575  1
