# generated using pymatgen
data_K4S6O5
_symmetry_space_group_name_H-M   'P 1'
_cell_length_a   11.91165216
_cell_length_b   11.19737108
_cell_length_c   5.28366124
_cell_angle_alpha   89.39205104
_cell_angle_beta   91.33216217
_cell_angle_gamma   93.73501007
_symmetry_Int_Tables_number   1
_chemical_formula_structural   K4S6O5
_chemical_formula_sum   'K8 S12 O10'
_cell_volume   703.01430880
_cell_formula_units_Z   2
loop_
 _symmetry_equiv_pos_site_id
 _symmetry_equiv_pos_as_xyz
  1  'x, y, z'
loop_
 _atom_site_type_symbol
 _atom_site_label
 _atom_site_symmetry_multiplicity
 _atom_site_fract_x
 _atom_site_fract_y
 _atom_site_fract_z
 _atom_site_occupancy
  K  K0  1  0.65481186  0.66129834  0.09323524  1
  K  K1  1  0.29437796  0.33472833  0.41695619  1
  K  K2  1  0.21117150  0.67800457  0.43066914  1
  K  K3  1  0.06845131  0.87496711  -0.02825937  1
  K  K4  1  0.94712815  0.24047687  0.61898381  1
  K  K5  1  0.66877650  0.25048550  0.19769382  1
  K  K6  1  0.47886571  0.89697123  0.54443241  1
  K  K7  1  0.36073941  0.12234685  -0.02362444  1
  S  S8  1  0.05042641  0.52175327  0.81421920  1
  S  S9  1  -0.09243469  0.46319497  0.01701153  1
  S  S10  1  0.45681360  0.42545188  0.87754958  1
  S  S11  1  0.77823612  -0.12266272  0.54659715  1
  S  S12  1  0.39842882  0.72512261  0.01937541  1
  S  S13  1  0.22280881  0.01695547  0.45869084  1
  S  S14  1  0.65857942  -0.02332742  0.05918369  1
  S  S15  1  0.80545892  0.00545101  0.88340362  1
  S  S16  1  0.72652928  0.44553172  0.70657801  1
  S  S17  1  0.11595159  0.12765016  0.25794254  1
  S  S18  1  0.33815685  0.54813044  0.91884002  1
  S  S19  1  -0.08532229  0.73267614  0.45237417  1
  O  O20  1  0.72138644  0.31082544  -0.29778655  1
  O  O21  1  0.11238938  0.62757860  -0.03348549  1
  O  O22  1  0.90691500  0.32965987  0.10065019  1
  O  O23  1  0.02736750  0.80117904  0.48138973  1
  O  O24  1  -0.12358233  -0.26832326  0.18056295  1
  O  O25  1  0.74169277  0.49798495  0.44863315  1
  O  O26  1  0.56122079  0.04385698  -0.06903126  1
  O  O27  1  0.47282176  0.34741736  0.12574012  1
  O  O28  1  0.34546660  0.08928951  0.48249493  1
  O  O29  1  0.67636688  0.79532519  0.62545638  1
