# generated using pymatgen
data_Li3BP5
_symmetry_space_group_name_H-M   'P 1'
_cell_length_a   7.20316783
_cell_length_b   7.20316555
_cell_length_c   5.64189474
_cell_angle_alpha   90.00034238
_cell_angle_beta   90.00027194
_cell_angle_gamma   90.00003506
_symmetry_Int_Tables_number   1
_chemical_formula_structural   Li3BP5
_chemical_formula_sum   'Li6 B2 P10'
_cell_volume   292.73315196
_cell_formula_units_Z   2
loop_
 _symmetry_equiv_pos_site_id
 _symmetry_equiv_pos_as_xyz
  1  'x, y, z'
loop_
 _atom_site_type_symbol
 _atom_site_label
 _atom_site_symmetry_multiplicity
 _atom_site_fract_x
 _atom_site_fract_y
 _atom_site_fract_z
 _atom_site_occupancy
  Li  Li0  1  0.00000025  0.50000026  0.50000032  1
  Li  Li1  1  0.50000027  -0.00000043  -0.00000031  1
  Li  Li2  1  0.77969997  0.77969999  0.75000085  1
  Li  Li3  1  0.22029848  0.22029845  0.74999904  1
  Li  Li4  1  0.22029851  0.77970147  0.25000006  1
  Li  Li5  1  0.77970098  0.22029896  0.25000006  1
  B  B6  1  -0.00000225  0.50000013  -0.00000008  1
  B  B7  1  0.50000174  -0.00000055  0.50000012  1
  P  P8  1  0.11813101  0.88186611  0.75000077  1
  P  P9  1  0.88186625  0.11813114  0.74999931  1
  P  P10  1  0.66647174  0.33353426  0.75000086  1
  P  P11  1  0.66646812  0.66646697  0.25000149  1
  P  P12  1  0.49999904  0.49999981  -0.00000092  1
  P  P13  1  0.33353442  0.66647178  0.74999912  1
  P  P14  1  0.33353249  0.33353170  0.24999850  1
  P  P15  1  0.50000020  0.49999948  0.50000092  1
  P  P16  1  0.88186605  0.88186683  0.24999736  1
  P  P17  1  0.11813275  0.11813366  0.25000252  1
