# generated using pymatgen
data_Li2PBr5
_symmetry_space_group_name_H-M   'P 1'
_cell_length_a   6.64017425
_cell_length_b   6.63920691
_cell_length_c   9.59687050
_cell_angle_alpha   90.00948338
_cell_angle_beta   90.00637173
_cell_angle_gamma   90.00010933
_symmetry_Int_Tables_number   1
_chemical_formula_structural   Li2PBr5
_chemical_formula_sum   'Li4 P2 Br10'
_cell_volume   423.08273750
_cell_formula_units_Z   2
loop_
 _symmetry_equiv_pos_site_id
 _symmetry_equiv_pos_as_xyz
  1  'x, y, z'
loop_
 _atom_site_type_symbol
 _atom_site_label
 _atom_site_symmetry_multiplicity
 _atom_site_fract_x
 _atom_site_fract_y
 _atom_site_fract_z
 _atom_site_occupancy
  Li  Li0  1  0.00000006  0.00000018  0.00000000  1
  Li  Li1  1  0.50000007  0.50000018  0.00000000  1
  Li  Li2  1  0.00000024  0.00000065  0.49999999  1
  Li  Li3  1  0.50000021  0.50000063  0.49999999  1
  P  P4  1  0.00000232  0.50000666  0.49999920  1
  P  P5  1  0.50000233  0.00000665  0.50000081  1
  Br  Br6  1  -0.00000035  0.49999902  -0.00000011  1
  Br  Br7  1  0.49999967  -0.00000099  0.00000010  1
  Br  Br8  1  0.25000688  0.25001125  0.33036231  1
  Br  Br9  1  0.74999379  0.74998655  0.66963769  1
  Br  Br10  1  0.24999390  0.24998626  0.66963770  1
  Br  Br11  1  0.75000723  0.75001088  0.33036231  1
  Br  Br12  1  0.24998557  0.74998154  0.66963766  1
  Br  Br13  1  0.75001158  0.25001474  0.33036235  1
  Br  Br14  1  0.25001144  0.75001464  0.33036237  1
  Br  Br15  1  0.74998506  0.24998118  0.66963764  1
