# generated using pymatgen
data_K(PI)6
_symmetry_space_group_name_H-M   'P 1'
_cell_length_a   13.98358945
_cell_length_b   12.73435797
_cell_length_c   4.63275303
_cell_angle_alpha   78.34178684
_cell_angle_beta   89.01094183
_cell_angle_gamma   136.07667758
_symmetry_Int_Tables_number   1
_chemical_formula_structural   K(PI)6
_chemical_formula_sum   'K1 P6 I6'
_cell_volume   544.13639959
_cell_formula_units_Z   1
loop_
 _symmetry_equiv_pos_site_id
 _symmetry_equiv_pos_as_xyz
  1  'x, y, z'
loop_
 _atom_site_type_symbol
 _atom_site_label
 _atom_site_symmetry_multiplicity
 _atom_site_fract_x
 _atom_site_fract_y
 _atom_site_fract_z
 _atom_site_occupancy
  K  K0  1  -0.10508736  0.14492206  0.50615136  1
  P  P1  1  0.69045224  0.47529226  -0.05970419  1
  P  P2  1  0.37342634  0.54150290  0.58744293  1
  P  P3  1  0.23788859  0.51965414  0.24143097  1
  P  P4  1  0.77153036  0.42356838  0.63288817  1
  P  P5  1  0.39256467  0.68776982  0.81476201  1
  P  P6  1  0.59579264  0.28422229  0.38574046  1
  I  I7  1  0.21254294  0.68680676  0.33058245  1
  I  I8  1  0.70137226  0.17717103  0.93651527  1
  I  I9  1  0.14157787  0.23404375  0.94476022  1
  I  I10  1  0.40975994  0.25459360  0.60086352  1
  I  I11  1  0.92978036  0.72882563  -0.03091644  1
  I  I12  1  0.64839915  0.84162737  0.20092960  1
