# generated using pymatgen
data_Li7(Si2I)9
_symmetry_space_group_name_H-M   'P 1'
_cell_length_a   9.53094719
_cell_length_b   9.53095757
_cell_length_c   9.53096847
_cell_angle_alpha   89.99997740
_cell_angle_beta   89.99992730
_cell_angle_gamma   90.00019641
_symmetry_Int_Tables_number   1
_chemical_formula_structural   Li7(Si2I)9
_chemical_formula_sum   'Li7 Si18 I9'
_cell_volume   865.78415296
_cell_formula_units_Z   1
loop_
 _symmetry_equiv_pos_site_id
 _symmetry_equiv_pos_as_xyz
  1  'x, y, z'
loop_
 _atom_site_type_symbol
 _atom_site_label
 _atom_site_symmetry_multiplicity
 _atom_site_fract_x
 _atom_site_fract_y
 _atom_site_fract_z
 _atom_site_occupancy
  Li  Li0  1  0.49999988  0.22474357  0.00000036  1
  Li  Li1  1  0.77525862  0.00000008  0.49999938  1
  Li  Li2  1  0.00000003  0.50000003  0.22474229  1
  Li  Li3  1  0.49999995  0.77525645  -0.00000039  1
  Li  Li4  1  -0.00000008  0.49999998  0.77525787  1
  Li  Li5  1  0.22474170  -0.00000009  0.50000074  1
  Li  Li6  1  0.50000001  0.50000000  0.50000003  1
  Si  Si7  1  0.62077141  0.49999975  0.00000039  1
  Si  Si8  1  0.37922849  0.50000023  -0.00000049  1
  Si  Si9  1  -0.00000096  0.62077139  0.50000025  1
  Si  Si10  1  0.00000088  0.37922864  0.49999993  1
  Si  Si11  1  0.25573653  0.49999997  0.62717305  1
  Si  Si12  1  0.49999981  0.62717342  0.25573708  1
  Si  Si13  1  0.62717356  0.25573651  0.49999999  1
  Si  Si14  1  0.37282634  0.74426337  0.49999995  1
  Si  Si15  1  0.74426334  0.50000003  0.37282683  1
  Si  Si16  1  0.50000013  0.37282655  0.74426290  1
  Si  Si17  1  0.25573663  0.49999960  0.37282685  1
  Si  Si18  1  0.37282673  0.25573646  0.49999972  1
  Si  Si19  1  0.50000022  0.37282676  0.25573730  1
  Si  Si20  1  0.49999971  0.62717317  0.74426272  1
  Si  Si21  1  0.62717316  0.74426366  0.50000020  1
  Si  Si22  1  0.74426347  0.50000040  0.62717300  1
  Si  Si23  1  0.50000048  -0.00000047  0.62077117  1
  Si  Si24  1  0.49999982  0.00000047  0.37922872  1
  I  I25  1  -0.00000001  0.00000000  -0.00000000  1
  I  I26  1  0.78777875  0.78777894  0.21222144  1
  I  I27  1  0.78777894  0.21222135  0.78777885  1
  I  I28  1  0.21222108  0.78777870  0.21222117  1
  I  I29  1  0.21222098  0.78777884  0.78777888  1
  I  I30  1  0.78777909  0.21222117  0.21222119  1
  I  I31  1  0.21222131  0.21222108  0.78777865  1
  I  I32  1  0.78777862  0.78777873  0.78777912  1
  I  I33  1  0.21222137  0.21222124  0.21222088  1
