# generated using pymatgen
data_LiBe2Cl5
_symmetry_space_group_name_H-M   'P 1'
_cell_length_a   9.83030939
_cell_length_b   12.80864926
_cell_length_c   6.60152106
_cell_angle_alpha   91.47706291
_cell_angle_beta   83.99606797
_cell_angle_gamma   81.54619768
_symmetry_Int_Tables_number   1
_chemical_formula_structural   LiBe2Cl5
_chemical_formula_sum   'Li4 Be8 Cl20'
_cell_volume   816.96003972
_cell_formula_units_Z   4
loop_
 _symmetry_equiv_pos_site_id
 _symmetry_equiv_pos_as_xyz
  1  'x, y, z'
loop_
 _atom_site_type_symbol
 _atom_site_label
 _atom_site_symmetry_multiplicity
 _atom_site_fract_x
 _atom_site_fract_y
 _atom_site_fract_z
 _atom_site_occupancy
  Li  Li0  1  0.14773805  -0.10915192  0.75296250  1
  Li  Li1  1  -0.02903490  0.03451529  0.33579426  1
  Li  Li2  1  0.41290537  0.54933187  0.64495156  1
  Li  Li3  1  0.45792439  0.50396765  0.14434561  1
  Be  Be4  1  0.31433734  0.88483478  0.20232356  1
  Be  Be5  1  0.67897348  0.13350066  0.03108857  1
  Be  Be6  1  0.74610056  0.42686180  0.51756759  1
  Be  Be7  1  0.16454895  0.65876270  0.45299872  1
  Be  Be8  1  0.84948105  0.79044311  0.63829092  1
  Be  Be9  1  0.25788708  0.11388137  0.43541817  1
  Be  Be10  1  0.58778276  0.27610927  -0.20617944  1
  Be  Be11  1  0.62417813  0.75670049  -0.12597162  1
  Cl  Cl12  1  -0.17299370  0.74009844  -0.07100940  1
  Cl  Cl13  1  -0.10430331  0.44749620  0.65335906  1
  Cl  Cl14  1  0.31826615  0.95732798  0.49127984  1
  Cl  Cl15  1  0.92904915  -0.07194942  0.63193553  1
  Cl  Cl16  1  0.17281458  -0.01806430  0.06645884  1
  Cl  Cl17  1  0.76418461  0.02562520  0.18434433  1
  Cl  Cl18  1  0.06711302  0.16577570  0.51241412  1
  Cl  Cl19  1  -0.04059504  0.68383049  0.42495907  1
  Cl  Cl20  1  -0.26753916  0.27448445  0.00256423  1
  Cl  Cl21  1  0.26445491  0.73933913  0.22085851  1
  Cl  Cl22  1  0.39531122  0.19133320  0.33403304  1
  Cl  Cl23  1  0.64692128  0.80967154  0.58311546  1
  Cl  Cl24  1  0.54997185  0.62081733  -0.10649233  1
  Cl  Cl25  1  0.42336042  0.38584072  -0.13982351  1
  Cl  Cl26  1  0.62600179  0.53048173  0.38050806  1
  Cl  Cl27  1  0.25476210  0.50835869  0.39049126  1
  Cl  Cl28  1  0.55157475  0.12244474  -0.17532725  1
  Cl  Cl29  1  0.50780009  0.87874046  0.05809344  1
  Cl  Cl30  1  0.68673158  0.28346611  0.51196627  1
  Cl  Cl31  1  0.21429145  0.70512453  0.72268104  1
