# generated using pymatgen
data_Li4IO4
_symmetry_space_group_name_H-M   'P 1'
_cell_length_a   7.79839487
_cell_length_b   5.22645365
_cell_length_c   5.36325859
_cell_angle_alpha   76.31788402
_cell_angle_beta   89.75651962
_cell_angle_gamma   91.65327725
_symmetry_Int_Tables_number   1
_chemical_formula_structural   Li4IO4
_chemical_formula_sum   'Li8 I2 O8'
_cell_volume   212.29012339
_cell_formula_units_Z   2
loop_
 _symmetry_equiv_pos_site_id
 _symmetry_equiv_pos_as_xyz
  1  'x, y, z'
loop_
 _atom_site_type_symbol
 _atom_site_label
 _atom_site_symmetry_multiplicity
 _atom_site_fract_x
 _atom_site_fract_y
 _atom_site_fract_z
 _atom_site_occupancy
  Li  Li0  1  -0.00722050  0.80101795  0.21200696  1
  Li  Li1  1  0.96164156  0.96583375  0.76545968  1
  Li  Li2  1  0.36860028  0.47357744  -0.03462148  1
  Li  Li3  1  0.66695561  0.65416891  0.70496373  1
  Li  Li4  1  0.07372405  0.49814883  0.82329627  1
  Li  Li5  1  0.15732535  0.25034626  0.31651658  1
  Li  Li6  1  0.28459996  0.00784350  -0.10452663  1
  Li  Li7  1  0.47222396  0.21107792  0.52005686  1
  I  I8  1  0.33550339  0.73982933  0.41579282  1
  I  I9  1  0.80160342  0.30855288  0.21621072  1
  O  O10  1  0.19102666  0.64014073  0.12589999  1
  O  O11  1  -0.01457846  0.16013951  0.00925513  1
  O  O12  1  0.11720294  -0.15523674  0.53480529  1
  O  O13  1  -0.16218084  0.64382823  -0.03410144  1
  O  O14  1  0.65732744  0.46972091  0.44689670  1
  O  O15  1  0.45572603  0.83571150  0.71536403  1
  O  O16  1  0.27533825  0.37844493  0.65379627  1
  O  O17  1  0.36518089  0.11685417  0.21292853  1
