# generated using pymatgen
data_Li(IO)6
_symmetry_space_group_name_H-M   'P 1'
_cell_length_a   10.33173895
_cell_length_b   8.98017068
_cell_length_c   4.48761130
_cell_angle_alpha   95.92363886
_cell_angle_beta   81.83490457
_cell_angle_gamma   113.97526753
_symmetry_Int_Tables_number   1
_chemical_formula_structural   Li(IO)6
_chemical_formula_sum   'Li1 I6 O6'
_cell_volume   376.10737895
_cell_formula_units_Z   1
loop_
 _symmetry_equiv_pos_site_id
 _symmetry_equiv_pos_as_xyz
  1  'x, y, z'
loop_
 _atom_site_type_symbol
 _atom_site_label
 _atom_site_symmetry_multiplicity
 _atom_site_fract_x
 _atom_site_fract_y
 _atom_site_fract_z
 _atom_site_occupancy
  Li  Li0  1  -0.16694791  -0.09252149  0.25825231  1
  I  I1  1  0.15742985  0.53572883  0.30944620  1
  I  I2  1  0.33154047  0.82900880  0.99275631  1
  I  I3  1  0.34601887  0.12633511  0.50019062  1
  I  I4  1  0.89930777  0.62257791  0.17292363  1
  I  I5  1  0.76632513  0.25242955  0.56118591  1
  I  I6  1  0.55006183  0.49024794  -0.10099345  1
  O  O7  1  0.78564074  0.30943323  -0.02866902  1
  O  O8  1  0.45441985  0.04558060  -0.29643545  1
  O  O9  1  0.34370764  0.29912493  -0.20645036  1
  O  O10  1  -0.01818362  0.83687160  0.32472216  1
  O  O11  1  0.80154752  0.06594516  0.51919396  1
  O  O12  1  0.74913185  0.67923784  0.04247098  1
