# generated using pymatgen
data_NaPO6
_symmetry_space_group_name_H-M   'P 1'
_cell_length_a   5.45662749
_cell_length_b   4.92888836
_cell_length_c   8.20649349
_cell_angle_alpha   99.94844000
_cell_angle_beta   85.82857949
_cell_angle_gamma   78.94989772
_symmetry_Int_Tables_number   1
_chemical_formula_structural   NaPO6
_chemical_formula_sum   'Na2 P2 O12'
_cell_volume   212.08225151
_cell_formula_units_Z   2
loop_
 _symmetry_equiv_pos_site_id
 _symmetry_equiv_pos_as_xyz
  1  'x, y, z'
loop_
 _atom_site_type_symbol
 _atom_site_label
 _atom_site_symmetry_multiplicity
 _atom_site_fract_x
 _atom_site_fract_y
 _atom_site_fract_z
 _atom_site_occupancy
  Na  Na0  1  0.24262758  0.33450280  0.35943147  1
  Na  Na1  1  0.77119184  0.61000096  0.77843952  1
  P  P2  1  -0.17508938  0.01866996  0.45247162  1
  P  P3  1  0.13727384  0.04286602  -0.04986727  1
  O  O4  1  0.63743104  0.02656382  0.31381619  1
  O  O5  1  0.06913039  0.17174496  0.78519891  1
  O  O6  1  0.51627113  0.22754880  0.73927004  1
  O  O7  1  -0.20759153  0.46989736  0.19831641  1
  O  O8  1  0.68074175  0.92750599  0.60733227  1
  O  O9  1  0.30190349  0.31243469  0.69891880  1
  O  O10  1  0.85259548  0.32021876  0.50061664  1
  O  O11  1  0.05803423  0.79416238  0.39649543  1
  O  O12  1  0.66435401  0.67841912  0.16614576  1
  O  O13  1  0.15118050  0.29562555  0.09142776  1
  O  O14  1  0.39201753  0.85023277  -0.07990350  1
  O  O15  1  0.90792811  -0.08039395  -0.03035631  1
