# generated using pymatgen
data_Li2B5Br7
_symmetry_space_group_name_H-M   'P 1'
_cell_length_a   4.55654860
_cell_length_b   5.01602305
_cell_length_c   15.26809518
_cell_angle_alpha   87.02889541
_cell_angle_beta   87.74871493
_cell_angle_gamma   81.51453061
_symmetry_Int_Tables_number   1
_chemical_formula_structural   Li2B5Br7
_chemical_formula_sum   'Li2 B5 Br7'
_cell_volume   344.50305066
_cell_formula_units_Z   1
loop_
 _symmetry_equiv_pos_site_id
 _symmetry_equiv_pos_as_xyz
  1  'x, y, z'
loop_
 _atom_site_type_symbol
 _atom_site_label
 _atom_site_symmetry_multiplicity
 _atom_site_fract_x
 _atom_site_fract_y
 _atom_site_fract_z
 _atom_site_occupancy
  Li  Li0  1  0.61319131  0.69988836  0.73452897  1
  Li  Li1  1  0.42187884  0.48154273  0.03419662  1
  B  B2  1  0.29489518  0.12797725  0.40669320  1
  B  B3  1  -0.10333283  0.15495401  0.01672149  1
  B  B4  1  0.60268087  -0.00346268  0.04150518  1
  B  B5  1  0.24615188  -0.02937624  0.02543200  1
  B  B6  1  -0.04804332  0.81137177  0.05016882  1
  Br  Br7  1  0.59211921  -0.18202051  0.41166578  1
  Br  Br8  1  0.18077850  0.29296443  0.29421193  1
  Br  Br9  1  0.11790003  0.70413726  0.69230415  1
  Br  Br10  1  0.61522663  0.20279110  0.71432788  1
  Br  Br11  1  -0.25847894  -0.17536356  0.17391616  1
  Br  Br12  1  0.11721029  0.27217218  0.51070270  1
  Br  Br13  1  0.10782235  0.14242390  0.89362513  1
