# generated using pymatgen
data_LiPCl2
_symmetry_space_group_name_H-M   'P 1'
_cell_length_a   10.88141502
_cell_length_b   10.30307442
_cell_length_c   8.11295835
_cell_angle_alpha   85.07675940
_cell_angle_beta   91.65497016
_cell_angle_gamma   87.37645839
_symmetry_Int_Tables_number   1
_chemical_formula_structural   LiPCl2
_chemical_formula_sum   'Li8 P8 Cl16'
_cell_volume   904.76261573
_cell_formula_units_Z   8
loop_
 _symmetry_equiv_pos_site_id
 _symmetry_equiv_pos_as_xyz
  1  'x, y, z'
loop_
 _atom_site_type_symbol
 _atom_site_label
 _atom_site_symmetry_multiplicity
 _atom_site_fract_x
 _atom_site_fract_y
 _atom_site_fract_z
 _atom_site_occupancy
  Li  Li0  1  0.26841612  0.43395255  0.15335904  1
  Li  Li1  1  0.53555716  0.75965751  0.07072613  1
  Li  Li2  1  0.26810989  0.37957009  0.67621533  1
  Li  Li3  1  0.79109848  0.55831165  0.89907110  1
  Li  Li4  1  0.15559188  0.72306540  0.85642196  1
  Li  Li5  1  -0.00869163  0.28083636  0.81241269  1
  Li  Li6  1  0.95039567  0.75008456  0.05206568  1
  Li  Li7  1  0.04696650  0.21332744  0.13907328  1
  P  P8  1  0.42929411  0.55616543  -0.01803350  1
  P  P9  1  0.54797968  0.53084690  0.49996124  1
  P  P10  1  0.49728079  0.02278454  0.22101950  1
  P  P11  1  0.48118608  0.04126863  -0.01480188  1
  P  P12  1  0.00856423  -0.04788934  0.51937643  1
  P  P13  1  0.01654534  -0.01056025  0.01179644  1
  P  P14  1  -0.04350228  0.52671406  0.34041796  1
  P  P15  1  0.02039715  0.46328621  0.55539663  1
  Cl  Cl16  1  0.68380448  0.64893903  0.58438582  1
  Cl  Cl17  1  0.32631245  0.33512875  0.41772361  1
  Cl  Cl18  1  0.64511380  0.43519352  0.33046420  1
  Cl  Cl19  1  0.44698226  0.67969633  0.34951453  1
  Cl  Cl20  1  0.73914498  0.72579303  0.06729355  1
  Cl  Cl21  1  0.19518716  0.29440043  -0.06244075  1
  Cl  Cl22  1  0.32684527  0.60350424  0.74598998  1
  Cl  Cl23  1  0.56898253  0.42901298  0.90277311  1
  Cl  Cl24  1  0.88064776  0.35696912  0.02448595  1
  Cl  Cl25  1  0.15773390  0.64257474  0.12989449  1
  Cl  Cl26  1  0.17709481  0.95987822  0.86696367  1
  Cl  Cl27  1  0.88478544  0.07119843  0.82555856  1
  Cl  Cl28  1  0.02484614  0.15562176  0.44619564  1
  Cl  Cl29  1  -0.04124165  0.68576749  0.77183312  1
  Cl  Cl30  1  0.86186422  -0.08349562  0.36512652  1
  Cl  Cl31  1  0.15670727  -0.12160419  0.39721909  1
