# generated using pymatgen
data_NaI2N5
_symmetry_space_group_name_H-M   'P 1'
_cell_length_a   7.02121530
_cell_length_b   7.03073255
_cell_length_c   3.73884538
_cell_angle_alpha   85.57754041
_cell_angle_beta   89.68107468
_cell_angle_gamma   117.69262615
_symmetry_Int_Tables_number   1
_chemical_formula_structural   NaI2N5
_chemical_formula_sum   'Na1 I2 N5'
_cell_volume   162.75824784
_cell_formula_units_Z   1
loop_
 _symmetry_equiv_pos_site_id
 _symmetry_equiv_pos_as_xyz
  1  'x, y, z'
loop_
 _atom_site_type_symbol
 _atom_site_label
 _atom_site_symmetry_multiplicity
 _atom_site_fract_x
 _atom_site_fract_y
 _atom_site_fract_z
 _atom_site_occupancy
  Na  Na0  1  -0.24915050  -0.24493188  0.26579584  1
  I  I1  1  0.66142908  0.26137493  -0.00841478  1
  I  I2  1  0.25360251  0.68362209  -0.24732949  1
  N  N3  1  0.13805559  0.01754455  0.47510089  1
  N  N4  1  0.72874810  0.41455869  0.46605332  1
  N  N5  1  0.13483269  0.15243019  0.68744218  1
  N  N6  1  0.93454550  -0.00365761  0.72757531  1
  N  N7  1  0.39793704  0.71905903  0.24557480  1
