# generated using pymatgen
data_Na8SiCl7
_symmetry_space_group_name_H-M   'P 1'
_cell_length_a   7.50622722
_cell_length_b   7.50622608
_cell_length_c   7.50622807
_cell_angle_alpha   89.99918586
_cell_angle_beta   89.99918557
_cell_angle_gamma   90.00000619
_symmetry_Int_Tables_number   1
_chemical_formula_structural   Na8SiCl7
_chemical_formula_sum   'Na8 Si1 Cl7'
_cell_volume   422.92669927
_cell_formula_units_Z   1
loop_
 _symmetry_equiv_pos_site_id
 _symmetry_equiv_pos_as_xyz
  1  'x, y, z'
loop_
 _atom_site_type_symbol
 _atom_site_label
 _atom_site_symmetry_multiplicity
 _atom_site_fract_x
 _atom_site_fract_y
 _atom_site_fract_z
 _atom_site_occupancy
  Na  Na0  1  0.79120487  0.20879699  0.20879582  1
  Na  Na1  1  0.20879698  0.79120486  0.20879583  1
  Na  Na2  1  0.20879207  0.20879212  0.79120138  1
  Na  Na3  1  0.79120002  0.79120004  0.79120685  1
  Na  Na4  1  0.50000696  0.50000694  0.50000001  1
  Na  Na5  1  0.00000005  0.50000097  0.49999999  1
  Na  Na6  1  0.50000096  0.00000004  0.50000000  1
  Na  Na7  1  0.49999760  0.49999756  0.00000004  1
  Si  Si8  1  0.00000710  0.00000706  0.00000004  1
  Cl  Cl9  1  0.00000553  0.49999866  0.00000003  1
  Cl  Cl10  1  0.49999868  0.00000555  0.00000005  1
  Cl  Cl11  1  -0.00000619  -0.00000623  0.50000001  1
  Cl  Cl12  1  0.30944795  0.69055931  0.69055603  1
  Cl  Cl13  1  0.69055930  0.30944795  0.69055599  1
  Cl  Cl14  1  0.30943839  0.30943844  0.30945606  1
  Cl  Cl15  1  0.69054972  0.69054972  0.30943186  1
