# generated using pymatgen
data_Li2I2Br
_symmetry_space_group_name_H-M   'P 1'
_cell_length_a   4.37023305
_cell_length_b   4.37023329
_cell_length_c   8.50794761
_cell_angle_alpha   89.99742929
_cell_angle_beta   90.00278577
_cell_angle_gamma   118.07492262
_symmetry_Int_Tables_number   1
_chemical_formula_structural   Li2I2Br
_chemical_formula_sum   'Li2 I2 Br1'
_cell_volume   143.37271692
_cell_formula_units_Z   1
loop_
 _symmetry_equiv_pos_site_id
 _symmetry_equiv_pos_as_xyz
  1  'x, y, z'
loop_
 _atom_site_type_symbol
 _atom_site_label
 _atom_site_symmetry_multiplicity
 _atom_site_fract_x
 _atom_site_fract_y
 _atom_site_fract_z
 _atom_site_occupancy
  Li  Li0  1  0.32966895  0.67033103  0.91529027  1
  Li  Li1  1  0.67033097  0.32966903  0.91528156  1
  I  I2  1  -0.00000252  -0.00000373  0.11829789  1
  I  I3  1  0.00000269  0.00000354  0.71185733  1
  Br  Br4  1  0.49999992  0.50000013  0.41531144  1
