# generated using pymatgen
data_LiSiCl6
_symmetry_space_group_name_H-M   'P 1'
_cell_length_a   8.81668596
_cell_length_b   8.81668501
_cell_length_c   8.81668558
_cell_angle_alpha   90.00000447
_cell_angle_beta   90.00000290
_cell_angle_gamma   90.00000733
_symmetry_Int_Tables_number   1
_chemical_formula_structural   LiSiCl6
_chemical_formula_sum   'Li4 Si4 Cl24'
_cell_volume   685.35573362
_cell_formula_units_Z   4
loop_
 _symmetry_equiv_pos_site_id
 _symmetry_equiv_pos_as_xyz
  1  'x, y, z'
loop_
 _atom_site_type_symbol
 _atom_site_label
 _atom_site_symmetry_multiplicity
 _atom_site_fract_x
 _atom_site_fract_y
 _atom_site_fract_z
 _atom_site_occupancy
  Li  Li0  1  0.50000033  0.00000005  0.49999972  1
  Li  Li1  1  -0.00000033  0.49999995  0.49999972  1
  Li  Li2  1  -0.00000033  0.00000004  0.00000028  1
  Li  Li3  1  0.50000033  0.49999996  0.00000028  1
  Si  Si4  1  0.50000003  0.49999999  0.49999998  1
  Si  Si5  1  -0.00000003  0.50000000  0.00000002  1
  Si  Si6  1  0.50000003  0.00000001  0.00000002  1
  Si  Si7  1  -0.00000003  0.00000000  0.49999998  1
  Cl  Cl8  1  0.74999997  0.00000005  0.25000002  1
  Cl  Cl9  1  -0.00000002  0.24999998  0.74999998  1
  Cl  Cl10  1  0.49999994  0.24999999  0.25000002  1
  Cl  Cl11  1  0.49999995  0.75000001  0.74999998  1
  Cl  Cl12  1  0.74999997  0.49999994  0.74999999  1
  Cl  Cl13  1  0.25000003  0.75000000  0.00000000  1
  Cl  Cl14  1  0.74999997  0.75000001  0.50000008  1
  Cl  Cl15  1  0.25000003  0.50000004  0.25000001  1
  Cl  Cl16  1  0.00000014  0.75000001  0.25000002  1
  Cl  Cl17  1  0.25000003  0.24999999  0.50000002  1
  Cl  Cl18  1  0.25000003  -0.00000002  0.74999998  1
  Cl  Cl19  1  0.74999997  0.24999999  -0.00000010  1
  Cl  Cl20  1  0.74999997  0.00000006  0.74999998  1
  Cl  Cl21  1  0.50000002  0.24999998  0.74999998  1
  Cl  Cl22  1  0.00000005  0.75000001  0.74999998  1
  Cl  Cl23  1  0.74999997  0.24999999  0.50000010  1
  Cl  Cl24  1  0.25000003  0.75000001  0.50000000  1
  Cl  Cl25  1  0.25000002  0.50000003  0.74999999  1
  Cl  Cl26  1  0.74999997  0.49999996  0.25000002  1
  Cl  Cl27  1  0.00000005  0.24999999  0.25000002  1
  Cl  Cl28  1  0.25000003  -0.00000004  0.25000001  1
  Cl  Cl29  1  0.25000003  0.24999999  -0.00000002  1
  Cl  Cl30  1  0.49999986  0.75000001  0.25000001  1
  Cl  Cl31  1  0.74999998  0.75000001  -0.00000008  1
