# generated using pymatgen
data_Na4I2N
_symmetry_space_group_name_H-M   'P 1'
_cell_length_a   7.67290408
_cell_length_b   7.37036435
_cell_length_c   8.38562504
_cell_angle_alpha   89.99919253
_cell_angle_beta   90.00010175
_cell_angle_gamma   89.31548676
_symmetry_Int_Tables_number   1
_chemical_formula_structural   Na4I2N
_chemical_formula_sum   'Na8 I4 N2'
_cell_volume   474.19085174
_cell_formula_units_Z   2
loop_
 _symmetry_equiv_pos_site_id
 _symmetry_equiv_pos_as_xyz
  1  'x, y, z'
loop_
 _atom_site_type_symbol
 _atom_site_label
 _atom_site_symmetry_multiplicity
 _atom_site_fract_x
 _atom_site_fract_y
 _atom_site_fract_z
 _atom_site_occupancy
  Na  Na0  1  0.71334349  0.78207738  0.49999374  1
  Na  Na1  1  0.28665649  0.21792267  0.50000626  1
  Na  Na2  1  0.20974643  0.71624192  0.00001225  1
  Na  Na3  1  0.79025361  0.28375811  -0.00001225  1
  Na  Na4  1  0.78665624  0.71792264  0.00000630  1
  Na  Na5  1  0.21334381  0.28207728  -0.00000631  1
  Na  Na6  1  0.70974648  0.21624210  0.50001223  1
  Na  Na7  1  0.29025353  0.78375792  0.49998777  1
  I  I8  1  0.00000256  0.00000163  0.74751864  1
  I  I9  1  -0.00000256  -0.00000164  0.25248136  1
  I  I10  1  0.49999745  0.49999836  0.75248115  1
  I  I11  1  0.50000255  0.50000166  0.24751885  1
  N  N12  1  -0.00000010  0.49999998  -0.00000000  1
  N  N13  1  0.50000003  -0.00000001  0.50000000  1
