# generated using pymatgen
data_Na5CO2
_symmetry_space_group_name_H-M   'P 1'
_cell_length_a   6.33175847
_cell_length_b   6.32923243
_cell_length_c   7.25878514
_cell_angle_alpha   89.99900727
_cell_angle_beta   89.99897632
_cell_angle_gamma   90.02414827
_symmetry_Int_Tables_number   1
_chemical_formula_structural   Na5CO2
_chemical_formula_sum   'Na10 C2 O4'
_cell_volume   290.89703070
_cell_formula_units_Z   2
loop_
 _symmetry_equiv_pos_site_id
 _symmetry_equiv_pos_as_xyz
  1  'x, y, z'
loop_
 _atom_site_type_symbol
 _atom_site_label
 _atom_site_symmetry_multiplicity
 _atom_site_fract_x
 _atom_site_fract_y
 _atom_site_fract_z
 _atom_site_occupancy
  Na  Na0  1  0.00003327  0.00009943  0.25002528  1
  Na  Na1  1  0.00009747  0.00003434  0.75002959  1
  Na  Na2  1  0.71283234  0.71255918  0.00061283  1
  Na  Na3  1  0.71251922  0.71285823  0.50061192  1
  Na  Na4  1  0.71276054  0.28748147  0.49935465  1
  Na  Na5  1  0.28752459  0.71279573  -0.00065820  1
  Na  Na6  1  0.28721722  0.28741542  0.00058225  1
  Na  Na7  1  0.28745559  0.28719000  0.50058185  1
  Na  Na8  1  0.28721336  0.71252017  0.49931683  1
  Na  Na9  1  0.71247808  0.28718010  -0.00069600  1
  C  C10  1  0.49999670  0.50001107  0.75007450  1
  C  C11  1  0.50001103  0.49999661  0.25007240  1
  O  O12  1  -0.00003855  0.49997732  0.49980440  1
  O  O13  1  -0.00001134  0.49993149  0.00018317  1
  O  O14  1  0.49997931  -0.00003833  -0.00014460  1
  O  O15  1  0.49993116  -0.00001223  0.50024915  1
