# generated using pymatgen
data_Li2PI2
_symmetry_space_group_name_H-M   'P 1'
_cell_length_a   5.33521210
_cell_length_b   5.33521257
_cell_length_c   5.87699454
_cell_angle_alpha   90.00000210
_cell_angle_beta   90.00000039
_cell_angle_gamma   120.00320738
_symmetry_Int_Tables_number   1
_chemical_formula_structural   Li2PI2
_chemical_formula_sum   'Li2 P1 I2'
_cell_volume   144.86894529
_cell_formula_units_Z   1
loop_
 _symmetry_equiv_pos_site_id
 _symmetry_equiv_pos_as_xyz
  1  'x, y, z'
loop_
 _atom_site_type_symbol
 _atom_site_label
 _atom_site_symmetry_multiplicity
 _atom_site_fract_x
 _atom_site_fract_y
 _atom_site_fract_z
 _atom_site_occupancy
  Li  Li0  1  0.66666585  0.33333413  0.00000000  1
  Li  Li1  1  0.33333415  0.66666587  -0.00000000  1
  P  P2  1  -0.00000000  0.00000000  0.00000000  1
  I  I3  1  0.33334636  0.66665368  0.50000000  1
  I  I4  1  0.66665364  0.33334632  0.50000000  1
