# generated using pymatgen
data_NaSO5
_symmetry_space_group_name_H-M   'P 1'
_cell_length_a   5.80444132
_cell_length_b   4.38274904
_cell_length_c   8.45246334
_cell_angle_alpha   89.99911209
_cell_angle_beta   99.20118152
_cell_angle_gamma   90.00135092
_symmetry_Int_Tables_number   1
_chemical_formula_structural   NaSO5
_chemical_formula_sum   'Na2 S2 O10'
_cell_volume   212.25893485
_cell_formula_units_Z   2
loop_
 _symmetry_equiv_pos_site_id
 _symmetry_equiv_pos_as_xyz
  1  'x, y, z'
loop_
 _atom_site_type_symbol
 _atom_site_label
 _atom_site_symmetry_multiplicity
 _atom_site_fract_x
 _atom_site_fract_y
 _atom_site_fract_z
 _atom_site_occupancy
  Na  Na0  1  0.21825749  0.65187380  0.64731027  1
  Na  Na1  1  0.71822826  -0.15191514  0.14733887  1
  S  S2  1  -0.21442645  0.26252358  0.79500093  1
  S  S3  1  0.28560502  0.23747350  0.29501622  1
  O  O4  1  -0.07116576  0.26716907  0.66799726  1
  O  O5  1  -0.10786832  0.35219668  0.09533057  1
  O  O6  1  -0.00886566  0.37487889  0.95631632  1
  O  O7  1  0.51651232  0.64196268  0.89737512  1
  O  O8  1  0.66762946  0.62494763  0.78502225  1
  O  O9  1  0.42886821  0.23284996  0.16802094  1
  O  O10  1  0.39210541  0.14771983  0.59535493  1
  O  O11  1  0.49114374  0.12508453  0.45632071  1
  O  O12  1  0.16749720  -0.12485714  0.28500475  1
  O  O13  1  0.01647908  -0.14190787  0.39737847  1
