# generated using pymatgen
data_K2IBr
_symmetry_space_group_name_H-M   'P 1'
_cell_length_a   8.39556405
_cell_length_b   8.39556409
_cell_length_c   8.45137659
_cell_angle_alpha   89.99999865
_cell_angle_beta   90.00000568
_cell_angle_gamma   90.00000912
_symmetry_Int_Tables_number   1
_chemical_formula_structural   K2IBr
_chemical_formula_sum   'K8 I4 Br4'
_cell_volume   595.69947056
_cell_formula_units_Z   4
loop_
 _symmetry_equiv_pos_site_id
 _symmetry_equiv_pos_as_xyz
  1  'x, y, z'
loop_
 _atom_site_type_symbol
 _atom_site_label
 _atom_site_symmetry_multiplicity
 _atom_site_fract_x
 _atom_site_fract_y
 _atom_site_fract_z
 _atom_site_occupancy
  K  K0  1  0.75049209  0.24950792  0.74999999  1
  K  K1  1  0.25049202  0.74950788  0.24999999  1
  K  K2  1  0.24950796  0.75049212  0.75000000  1
  K  K3  1  0.74950789  0.25049211  0.25000002  1
  K  K4  1  0.24950798  0.24950795  0.25000006  1
  K  K5  1  0.25049201  0.25049204  0.74999994  1
  K  K6  1  0.74950797  0.74950797  0.75000005  1
  K  K7  1  0.75049204  0.75049205  0.24999995  1
  I  I8  1  0.50000000  0.50000001  -0.00000004  1
  I  I9  1  0.00000000  -0.00000001  0.00000003  1
  I  I10  1  0.00000002  0.00000000  0.49999997  1
  I  I11  1  0.49999999  0.50000000  0.50000003  1
  Br  Br12  1  0.50000000  -0.00000000  -0.00000001  1
  Br  Br13  1  0.00000001  0.49999998  0.50000000  1
  Br  Br14  1  0.50000002  0.00000000  0.50000001  1
  Br  Br15  1  0.00000001  0.49999999  0.00000000  1
