# generated using pymatgen
data_Li2P7I4
_symmetry_space_group_name_H-M   'P 1'
_cell_length_a   6.64532371
_cell_length_b   6.64551323
_cell_length_c   6.64524705
_cell_angle_alpha   90.00084990
_cell_angle_beta   90.00150093
_cell_angle_gamma   89.99935915
_symmetry_Int_Tables_number   1
_chemical_formula_structural   Li2P7I4
_chemical_formula_sum   'Li2 P7 I4'
_cell_volume   293.46465331
_cell_formula_units_Z   1
loop_
 _symmetry_equiv_pos_site_id
 _symmetry_equiv_pos_as_xyz
  1  'x, y, z'
loop_
 _atom_site_type_symbol
 _atom_site_label
 _atom_site_symmetry_multiplicity
 _atom_site_fract_x
 _atom_site_fract_y
 _atom_site_fract_z
 _atom_site_occupancy
  Li  Li0  1  0.50000742  0.50000955  0.49999690  1
  Li  Li1  1  -0.00000984  -0.00001408  0.00000474  1
  P  P2  1  0.21025979  0.21026331  0.21024290  1
  P  P3  1  0.78973058  0.78973720  0.21027428  1
  P  P4  1  0.78975719  0.21026806  0.78973981  1
  P  P5  1  0.21027231  0.78975598  0.78973200  1
  P  P6  1  0.00000006  -0.00000065  0.50001916  1
  P  P7  1  0.00000009  0.49994808  0.00000047  1
  P  P8  1  0.49996266  -0.00000067  0.00000045  1
  I  I9  1  0.72031712  0.72031825  0.72031125  1
  I  I10  1  0.27969155  0.72031817  0.27968466  1
  I  I11  1  0.72031571  0.27969713  0.27968598  1
  I  I12  1  0.27969536  0.27969966  0.72030739  1
