# generated using pymatgen
data_K2SI3
_symmetry_space_group_name_H-M   'P 1'
_cell_length_a   9.42276825
_cell_length_b   12.51177565
_cell_length_c   9.48968236
_cell_angle_alpha   89.99378353
_cell_angle_beta   89.99669924
_cell_angle_gamma   90.00181213
_symmetry_Int_Tables_number   1
_chemical_formula_structural   K2SI3
_chemical_formula_sum   'K8 S4 I12'
_cell_volume   1118.79142816
_cell_formula_units_Z   4
loop_
 _symmetry_equiv_pos_site_id
 _symmetry_equiv_pos_as_xyz
  1  'x, y, z'
loop_
 _atom_site_type_symbol
 _atom_site_label
 _atom_site_symmetry_multiplicity
 _atom_site_fract_x
 _atom_site_fract_y
 _atom_site_fract_z
 _atom_site_occupancy
  K  K0  1  0.17868676  0.25997318  0.24360316  1
  K  K1  1  0.82131021  0.74002563  0.74360396  1
  K  K2  1  0.67867307  0.24001212  0.24360047  1
  K  K3  1  0.32133074  0.75997200  0.74358404  1
  K  K4  1  0.77044195  0.81573167  0.26264180  1
  K  K5  1  0.72958147  0.31576340  0.76264063  1
  K  K6  1  0.27042146  0.68427236  0.26265922  1
  K  K7  1  0.22955988  0.18424672  0.76266890  1
  S  S8  1  0.57894710  0.85321058  0.54454244  1
  S  S9  1  0.42105356  0.14679362  0.04458959  1
  S  S10  1  0.07893177  0.64681437  0.54456565  1
  S  S11  1  0.92105975  0.35318788  0.04455852  1
  I  I12  1  0.49126256  0.03961985  0.50810940  1
  I  I13  1  0.94106090  0.12802595  -0.00651018  1
  I  I14  1  0.50872095  0.96035443  0.00810504  1
  I  I15  1  0.05893524  0.87198259  0.49344733  1
  I  I16  1  0.99122792  0.46037767  0.50806976  1
  I  I17  1  0.44106922  0.37194175  -0.00656129  1
  I  I18  1  0.00877513  0.53963186  0.00806896  1
  I  I19  1  0.55894067  0.62805289  0.49346992  1
  I  I20  1  0.05668710  0.81188299  0.00937962  1
  I  I21  1  0.94332280  0.18813694  0.50941918  1
  I  I22  1  0.55667998  0.68811363  0.00941173  1
  I  I23  1  0.44331981  0.31187594  0.50940041  1
