# generated using pymatgen
data_NaPO4
_symmetry_space_group_name_H-M   'P 1'
_cell_length_a   6.37996161
_cell_length_b   4.76623043
_cell_length_c   11.33807773
_cell_angle_alpha   100.12560920
_cell_angle_beta   97.85949811
_cell_angle_gamma   105.21515942
_symmetry_Int_Tables_number   1
_chemical_formula_structural   NaPO4
_chemical_formula_sum   'Na4 P4 O16'
_cell_volume   321.37843904
_cell_formula_units_Z   4
loop_
 _symmetry_equiv_pos_site_id
 _symmetry_equiv_pos_as_xyz
  1  'x, y, z'
loop_
 _atom_site_type_symbol
 _atom_site_label
 _atom_site_symmetry_multiplicity
 _atom_site_fract_x
 _atom_site_fract_y
 _atom_site_fract_z
 _atom_site_occupancy
  Na  Na0  1  0.43364770  0.33666239  0.64224614  1
  Na  Na1  1  -0.05724223  -0.18116811  0.16137495  1
  Na  Na2  1  0.59612420  0.80416778  0.34416790  1
  Na  Na3  1  0.13512189  0.31918453  0.85030505  1
  P  P4  1  0.02385119  0.46722833  0.41132969  1
  P  P5  1  -0.00249709  0.67595414  0.62658522  1
  P  P6  1  0.55758447  -0.04021777  0.91748511  1
  P  P7  1  0.47951987  0.15785442  0.12322212  1
  O  O8  1  0.84115212  0.46286154  -0.07456069  1
  O  O9  1  0.13504275  0.50876760  0.06178653  1
  O  O10  1  0.16453473  0.49107665  0.54131504  1
  O  O11  1  0.86793625  0.64235143  0.46837106  1
  O  O12  1  0.62350966  0.47056910  0.18050087  1
  O  O13  1  0.45258151  0.67246449  0.82711492  1
  O  O14  1  0.73596724  0.16333747  0.85334740  1
  O  O15  1  0.13822739  0.29079277  0.11416681  1
  O  O16  1  0.30754503  -0.03810282  0.40751938  1
  O  O17  1  0.63718280  0.02879625  0.56180506  1
  O  O18  1  0.66938938  -0.03292754  0.05041995  1
  O  O19  1  0.39238492  0.13574971  -0.03852675  1
  O  O20  1  0.14112274  -0.00807717  0.67743105  1
  O  O21  1  0.91052548  0.17032983  0.32997540  1
  O  O22  1  0.17767127  -0.33629347  0.33555931  1
  O  O23  1  0.63911673  -0.16136155  0.62705850  1
