# generated using pymatgen
data_Li4Br2N
_symmetry_space_group_name_H-M   'P 1'
_cell_length_a   12.65150423
_cell_length_b   12.65152549
_cell_length_c   6.96913299
_cell_angle_alpha   90.00025265
_cell_angle_beta   90.00034539
_cell_angle_gamma   90.00014884
_symmetry_Int_Tables_number   1
_chemical_formula_structural   Li4Br2N
_chemical_formula_sum   'Li32 Br16 N8'
_cell_volume   1115.48519857
_cell_formula_units_Z   8
loop_
 _symmetry_equiv_pos_site_id
 _symmetry_equiv_pos_as_xyz
  1  'x, y, z'
loop_
 _atom_site_type_symbol
 _atom_site_label
 _atom_site_symmetry_multiplicity
 _atom_site_fract_x
 _atom_site_fract_y
 _atom_site_fract_z
 _atom_site_occupancy
  Li  Li0  1  0.52098562  0.15271562  0.83588900  1
  Li  Li1  1  0.15271328  -0.02098652  0.08589082  1
  Li  Li2  1  0.34728609  0.52099609  0.58589085  1
  Li  Li3  1  -0.02099417  0.34729433  0.33589309  1
  Li  Li4  1  0.02098840  0.65273068  0.33589085  1
  Li  Li5  1  0.65272203  0.47901384  0.58589181  1
  Li  Li6  1  0.84727613  0.02099289  0.08589467  1
  Li  Li7  1  0.47900782  0.84727539  0.83589685  1
  Li  Li8  1  0.51301302  0.40972591  0.31777669  1
  Li  Li9  1  0.48699208  0.59027431  0.31777341  1
  Li  Li10  1  0.90972617  0.48698989  0.06777032  1
  Li  Li11  1  0.09027066  0.51301279  0.06777074  1
  Li  Li12  1  0.01301197  0.90972465  0.81778004  1
  Li  Li13  1  0.98699062  0.09027361  0.81777531  1
  Li  Li14  1  0.40972671  0.98698642  0.56777243  1
  Li  Li15  1  0.59027247  0.01301168  0.56777532  1
  Li  Li16  1  0.65273191  0.52098426  0.08588835  1
  Li  Li17  1  0.47901643  0.15270692  0.33589225  1
  Li  Li18  1  0.02098811  0.34728961  0.83589244  1
  Li  Li19  1  0.84727598  -0.02099203  0.58589351  1
  Li  Li20  1  0.15271506  0.02098339  0.58589214  1
  Li  Li21  1  -0.02098450  0.65272642  0.83589017  1
  Li  Li22  1  0.52099517  0.84727070  0.33589113  1
  Li  Li23  1  0.34729316  0.47901352  0.08589441  1
  Li  Li24  1  0.90972625  0.51301685  0.56777265  1
  Li  Li25  1  0.09027086  0.48698664  0.56776803  1
  Li  Li26  1  0.98698826  0.90972312  0.31777741  1
  Li  Li27  1  0.01301358  0.09027191  0.31777827  1
  Li  Li28  1  0.40972487  0.01301413  0.06777775  1
  Li  Li29  1  0.59027415  0.98698821  0.06777411  1
  Li  Li30  1  0.48698460  0.40972771  0.81776918  1
  Li  Li31  1  0.51301736  0.59027230  0.81777123  1
  Br  Br32  1  0.42931489  0.73151492  0.57042636  1
  Br  Br33  1  0.57068477  0.26848588  0.57042298  1
  Br  Br34  1  0.23151465  0.57068605  0.32042533  1
  Br  Br35  1  0.76848713  0.42931344  0.32042541  1
  Br  Br36  1  0.92931367  0.23151432  0.07042458  1
  Br  Br37  1  0.07068562  0.76848657  0.07042303  1
  Br  Br38  1  0.73151409  0.07068586  0.82042676  1
  Br  Br39  1  0.26848562  0.92931348  0.82042456  1
  Br  Br40  1  0.23151602  0.42931493  0.82042503  1
  Br  Br41  1  0.76848483  0.57068335  0.82042318  1
  Br  Br42  1  0.07068567  0.23151561  0.57042303  1
  Br  Br43  1  0.92931518  0.76848516  0.57042402  1
  Br  Br44  1  0.73151542  0.92931516  0.32042723  1
  Br  Br45  1  0.26848534  0.07068596  0.32042290  1
  Br  Br46  1  0.57068516  0.73151526  0.07042435  1
  Br  Br47  1  0.42931224  0.26848571  0.07042401  1
  N  N48  1  0.49999027  0.50000025  0.56873962  1
  N  N49  1  -0.00000491  0.49997365  0.31874143  1
  N  N50  1  0.00001171  0.00000099  0.06874078  1
  N  N51  1  0.49999741  0.00000998  0.81873891  1
  N  N52  1  0.00000539  0.49998193  0.81873827  1
  N  N53  1  0.00001087  0.00000225  0.56873963  1
  N  N54  1  0.49999455  0.00002306  0.31874003  1
  N  N55  1  0.49997421  0.49999099  0.06873710  1
