# generated using pymatgen
data_K4Li3I4
_symmetry_space_group_name_H-M   'P 1'
_cell_length_a   9.40580284
_cell_length_b   11.39287954
_cell_length_c   8.57275563
_cell_angle_alpha   89.99983274
_cell_angle_beta   89.99990520
_cell_angle_gamma   90.00000198
_symmetry_Int_Tables_number   1
_chemical_formula_structural   K4Li3I4
_chemical_formula_sum   'K8 Li6 I8'
_cell_volume   918.64945244
_cell_formula_units_Z   2
loop_
 _symmetry_equiv_pos_site_id
 _symmetry_equiv_pos_as_xyz
  1  'x, y, z'
loop_
 _atom_site_type_symbol
 _atom_site_label
 _atom_site_symmetry_multiplicity
 _atom_site_fract_x
 _atom_site_fract_y
 _atom_site_fract_z
 _atom_site_occupancy
  K  K0  1  0.50000051  0.29261500  0.77304764  1
  K  K1  1  0.49999952  0.70721831  0.22697454  1
  K  K2  1  -0.00000049  0.29278085  0.72697511  1
  K  K3  1  0.00000053  0.70738581  0.27304700  1
  K  K4  1  -0.00000060  0.35257206  0.23568897  1
  K  K5  1  0.50000047  0.35250246  0.26429875  1
  K  K6  1  0.00000048  0.64749825  0.76429850  1
  K  K7  1  0.49999941  0.64742732  0.73568873  1
  Li  Li8  1  0.00000019  -0.00009014  -0.00001646  1
  Li  Li9  1  0.50000017  0.00009007  0.49998367  1
  Li  Li10  1  0.15653462  -0.00003122  0.49994056  1
  Li  Li11  1  0.84346561  -0.00003014  0.49994319  1
  Li  Li12  1  0.65653586  0.00003109  -0.00005904  1
  Li  Li13  1  0.34346439  0.00002999  -0.00005643  1
  I  I14  1  0.74314035  0.49999108  -0.00000039  1
  I  I15  1  0.25685960  0.49999054  -0.00000039  1
  I  I16  1  0.75685886  0.50000946  0.49999962  1
  I  I17  1  0.24314109  0.50000891  0.49999962  1
  I  I18  1  0.75000576  0.12941785  0.25006263  1
  I  I19  1  0.24999392  0.12941969  0.25006224  1
  I  I20  1  0.25000866  0.87058230  0.75006111  1
  I  I21  1  0.74999109  0.87058046  0.75006080  1
