# generated using pymatgen
data_LiC2S5
_symmetry_space_group_name_H-M   'P 1'
_cell_length_a   6.28189587
_cell_length_b   5.15367491
_cell_length_c   6.36970235
_cell_angle_alpha   87.40858906
_cell_angle_beta   95.67451225
_cell_angle_gamma   73.50066976
_symmetry_Int_Tables_number   1
_chemical_formula_structural   LiC2S5
_chemical_formula_sum   'Li1 C2 S5'
_cell_volume   196.17638330
_cell_formula_units_Z   1
loop_
 _symmetry_equiv_pos_site_id
 _symmetry_equiv_pos_as_xyz
  1  'x, y, z'
loop_
 _atom_site_type_symbol
 _atom_site_label
 _atom_site_symmetry_multiplicity
 _atom_site_fract_x
 _atom_site_fract_y
 _atom_site_fract_z
 _atom_site_occupancy
  Li  Li0  1  0.35824749  -0.10669955  0.81092542  1
  C  C1  1  0.32790643  0.91479997  0.31004564  1
  C  C2  1  -0.06493636  0.57905394  -0.19728233  1
  S  S3  1  0.76411518  -0.08999652  0.77063591  1
  S  S4  1  0.74383696  0.40568554  0.77925917  1
  S  S5  1  0.21455669  0.46836032  0.83845246  1
  S  S6  1  0.55559593  -0.22444271  0.22895282  1
  S  S7  1  0.10067767  0.05323901  0.39313458  1
