# generated using pymatgen
data_LiICl2
_symmetry_space_group_name_H-M   'P 1'
_cell_length_a   5.65968204
_cell_length_b   5.66065804
_cell_length_c   6.57715625
_cell_angle_alpha   89.99999325
_cell_angle_beta   89.99999404
_cell_angle_gamma   90.00001107
_symmetry_Int_Tables_number   1
_chemical_formula_structural   LiICl2
_chemical_formula_sum   'Li2 I2 Cl4'
_cell_volume   210.71580567
_cell_formula_units_Z   2
loop_
 _symmetry_equiv_pos_site_id
 _symmetry_equiv_pos_as_xyz
  1  'x, y, z'
loop_
 _atom_site_type_symbol
 _atom_site_label
 _atom_site_symmetry_multiplicity
 _atom_site_fract_x
 _atom_site_fract_y
 _atom_site_fract_z
 _atom_site_occupancy
  Li  Li0  1  0.00000000  0.50000000  0.00000000  1
  Li  Li1  1  0.50000000  -0.00000000  0.50000000  1
  I  I2  1  0.00000001  -0.00000001  0.25000926  1
  I  I3  1  -0.00000001  0.00000001  0.74999074  1
  Cl  Cl4  1  0.70497595  0.49999994  0.49999953  1
  Cl  Cl5  1  0.29502405  0.50000006  0.50000047  1
  Cl  Cl6  1  0.50000005  0.29500515  0.00000048  1
  Cl  Cl7  1  0.49999995  0.70499485  -0.00000048  1
