# generated using pymatgen
data_Li2Br4O
_symmetry_space_group_name_H-M   'P 1'
_cell_length_a   4.86392523
_cell_length_b   4.86397381
_cell_length_c   7.76607424
_cell_angle_alpha   89.99999919
_cell_angle_beta   89.99999978
_cell_angle_gamma   89.86230705
_symmetry_Int_Tables_number   1
_chemical_formula_structural   Li2Br4O
_chemical_formula_sum   'Li2 Br4 O1'
_cell_volume   183.72929231
_cell_formula_units_Z   1
loop_
 _symmetry_equiv_pos_site_id
 _symmetry_equiv_pos_as_xyz
  1  'x, y, z'
loop_
 _atom_site_type_symbol
 _atom_site_label
 _atom_site_symmetry_multiplicity
 _atom_site_fract_x
 _atom_site_fract_y
 _atom_site_fract_z
 _atom_site_occupancy
  Li  Li0  1  0.00000000  0.00000000  0.87247864  1
  Li  Li1  1  0.00000001  0.00000001  0.23320197  1
  Br  Br2  1  0.50000000  0.50000000  0.55847543  1
  Br  Br3  1  -0.00000000  0.50000000  0.03223542  1
  Br  Br4  1  0.50000000  -0.00000000  0.03224395  1
  Br  Br5  1  -0.00000000  -0.00000001  0.55696845  1
  O  O6  1  0.50000000  0.49999999  0.33807429  1
