# generated using pymatgen
data_K2Br5N
_symmetry_space_group_name_H-M   'P 1'
_cell_length_a   6.57502722
_cell_length_b   6.57495894
_cell_length_c   5.94125751
_cell_angle_alpha   90.00000337
_cell_angle_beta   90.00000003
_cell_angle_gamma   90.00000110
_symmetry_Int_Tables_number   1
_chemical_formula_structural   K2Br5N
_chemical_formula_sum   'K2 Br5 N1'
_cell_volume   256.84373467
_cell_formula_units_Z   1
loop_
 _symmetry_equiv_pos_site_id
 _symmetry_equiv_pos_as_xyz
  1  'x, y, z'
loop_
 _atom_site_type_symbol
 _atom_site_label
 _atom_site_symmetry_multiplicity
 _atom_site_fract_x
 _atom_site_fract_y
 _atom_site_fract_z
 _atom_site_occupancy
  K  K0  1  0.49999999  0.50000000  0.49999999  1
  K  K1  1  -0.00000004  0.00000006  0.00000001  1
  Br  Br2  1  0.50000002  0.50000000  -0.00000002  1
  Br  Br3  1  0.50000000  0.00000002  0.25639723  1
  Br  Br4  1  -0.00000001  0.49999999  0.25639728  1
  Br  Br5  1  0.49999999  -0.00000000  0.74360277  1
  Br  Br6  1  0.00000003  0.49999999  0.74360273  1
  N  N7  1  0.00000001  -0.00000005  0.50000001  1
