# generated using pymatgen
data_Na2NCl5
_symmetry_space_group_name_H-M   'P 1'
_cell_length_a   5.45669512
_cell_length_b   7.90956534
_cell_length_c   5.11854669
_cell_angle_alpha   86.29089643
_cell_angle_beta   89.99999500
_cell_angle_gamma   89.99999361
_symmetry_Int_Tables_number   1
_chemical_formula_structural   Na2NCl5
_chemical_formula_sum   'Na2 N1 Cl5'
_cell_volume   220.45417533
_cell_formula_units_Z   1
loop_
 _symmetry_equiv_pos_site_id
 _symmetry_equiv_pos_as_xyz
  1  'x, y, z'
loop_
 _atom_site_type_symbol
 _atom_site_label
 _atom_site_symmetry_multiplicity
 _atom_site_fract_x
 _atom_site_fract_y
 _atom_site_fract_z
 _atom_site_occupancy
  Na  Na0  1  -0.00000007  0.56584014  0.72898636  1
  Na  Na1  1  0.50000002  0.43825265  0.26555465  1
  N  N2  1  0.00000002  -0.16643777  0.43411966  1
  Cl  Cl3  1  0.49999998  0.19516597  0.79506877  1
  Cl  Cl4  1  0.50000012  0.57957249  0.75427156  1
  Cl  Cl5  1  0.49999999  0.93268676  0.79891083  1
  Cl  Cl6  1  0.00000004  0.02657285  0.32631590  1
  Cl  Cl7  1  -0.00000011  0.42834691  0.24387328  1
