# generated using pymatgen
data_LiPS6
_symmetry_space_group_name_H-M   'P 1'
_cell_length_a   7.23060768
_cell_length_b   7.93665050
_cell_length_c   8.64229495
_cell_angle_alpha   84.05814437
_cell_angle_beta   82.53860859
_cell_angle_gamma   125.76385766
_symmetry_Int_Tables_number   1
_chemical_formula_structural   LiPS6
_chemical_formula_sum   'Li2 P2 S12'
_cell_volume   388.97773591
_cell_formula_units_Z   2
loop_
 _symmetry_equiv_pos_site_id
 _symmetry_equiv_pos_as_xyz
  1  'x, y, z'
loop_
 _atom_site_type_symbol
 _atom_site_label
 _atom_site_symmetry_multiplicity
 _atom_site_fract_x
 _atom_site_fract_y
 _atom_site_fract_z
 _atom_site_occupancy
  Li  Li0  1  0.44974718  0.66479293  0.32559436  1
  Li  Li1  1  0.51335595  0.50174614  0.00613521  1
  P  P2  1  0.11952849  -0.14849888  -0.15687815  1
  P  P3  1  -0.02990275  0.03840628  0.77667367  1
  S  S4  1  0.14537833  0.31897500  0.25533703  1
  S  S5  1  -0.07140611  0.36308350  0.16997234  1
  S  S6  1  0.49028067  0.00550759  0.26377944  1
  S  S7  1  0.77947660  0.67454414  0.18322584  1
  S  S8  1  -0.12476984  0.52341084  0.31880498  1
  S  S9  1  0.37857954  0.09000339  0.43770591  1
  S  S10  1  0.42331986  0.45874790  0.60069632  1
  S  S11  1  0.67164182  -0.10554530  0.95086172  1
  S  S12  1  0.20992463  0.35016770  0.83516209  1
  S  S13  1  0.75519220  0.69802835  0.60254637  1
  S  S14  1  0.42903556  -0.00267174  0.66107951  1
  S  S15  1  -0.13938212  0.56930214  0.76930336  1
