# generated using pymatgen
data_Li5Br4N
_symmetry_space_group_name_H-M   'P 1'
_cell_length_a   9.74482656
_cell_length_b   11.90904743
_cell_length_c   4.92532600
_cell_angle_alpha   90.00065386
_cell_angle_beta   90.00075119
_cell_angle_gamma   89.99999973
_symmetry_Int_Tables_number   1
_chemical_formula_structural   Li5Br4N
_chemical_formula_sum   'Li10 Br8 N2'
_cell_volume   571.59197138
_cell_formula_units_Z   2
loop_
 _symmetry_equiv_pos_site_id
 _symmetry_equiv_pos_as_xyz
  1  'x, y, z'
loop_
 _atom_site_type_symbol
 _atom_site_label
 _atom_site_symmetry_multiplicity
 _atom_site_fract_x
 _atom_site_fract_y
 _atom_site_fract_z
 _atom_site_occupancy
  Li  Li0  1  0.49999959  0.00000017  0.49999989  1
  Li  Li1  1  -0.00000032  0.49999999  0.49999989  1
  Li  Li2  1  0.20735462  0.86654125  0.50003081  1
  Li  Li3  1  0.29264642  0.63345801  0.49996960  1
  Li  Li4  1  0.79264685  0.13345805  0.49997053  1
  Li  Li5  1  0.70735381  0.36654101  0.50002963  1
  Li  Li6  1  0.79264625  0.86654203  0.49998843  1
  Li  Li7  1  0.70735386  0.63345895  0.50001164  1
  Li  Li8  1  0.20735403  0.13345884  0.50001297  1
  Li  Li9  1  0.29264645  0.36654198  0.49998742  1
  Br  Br10  1  0.50000018  0.49999988  -0.00000260  1
  Br  Br11  1  0.00000013  -0.00000010  0.00000647  1
  Br  Br12  1  0.24999989  0.25000028  -0.00000034  1
  Br  Br13  1  0.74999982  0.75000027  0.00000007  1
  Br  Br14  1  0.25000021  0.74999972  -0.00000030  1
  Br  Br15  1  0.75000013  0.24999972  -0.00000013  1
  Br  Br16  1  0.50000064  0.50000002  0.50000261  1
  Br  Br17  1  0.00000079  -0.00000025  0.49999362  1
  N  N18  1  -0.00000136  0.50000009  -0.00000017  1
  N  N19  1  0.49999801  0.00000008  -0.00000005  1
