# generated using pymatgen
data_LiIBr2
_symmetry_space_group_name_H-M   'P 1'
_cell_length_a   5.47554758
_cell_length_b   7.15747908
_cell_length_c   8.28393183
_cell_angle_alpha   90.03078048
_cell_angle_beta   90.03946855
_cell_angle_gamma   112.24685078
_symmetry_Int_Tables_number   1
_chemical_formula_structural   LiIBr2
_chemical_formula_sum   'Li2 I2 Br4'
_cell_volume   300.48935430
_cell_formula_units_Z   2
loop_
 _symmetry_equiv_pos_site_id
 _symmetry_equiv_pos_as_xyz
  1  'x, y, z'
loop_
 _atom_site_type_symbol
 _atom_site_label
 _atom_site_symmetry_multiplicity
 _atom_site_fract_x
 _atom_site_fract_y
 _atom_site_fract_z
 _atom_site_occupancy
  Li  Li0  1  -0.05352564  -0.10662609  0.75085711  1
  Li  Li1  1  0.05318551  0.10669054  0.25117954  1
  I  I2  1  0.27036624  0.54233151  0.74791528  1
  I  I3  1  0.73004788  0.45758092  0.24705661  1
  Br  Br4  1  0.26329145  0.52487185  0.25146055  1
  Br  Br5  1  0.73708071  0.47502906  0.75048041  1
  Br  Br6  1  0.82206479  -0.00064214  0.50053598  1
  Br  Br7  1  0.17748905  0.00076436  0.00051452  1
