# generated using pymatgen
data_NaSiBr2
_symmetry_space_group_name_H-M   'P 1'
_cell_length_a   5.18954184
_cell_length_b   5.18954184
_cell_length_c   7.27520067
_cell_angle_alpha   90.00001943
_cell_angle_beta   90.00001841
_cell_angle_gamma   89.99999963
_symmetry_Int_Tables_number   1
_chemical_formula_structural   NaSiBr2
_chemical_formula_sum   'Na2 Si2 Br4'
_cell_volume   195.93093560
_cell_formula_units_Z   2
loop_
 _symmetry_equiv_pos_site_id
 _symmetry_equiv_pos_as_xyz
  1  'x, y, z'
loop_
 _atom_site_type_symbol
 _atom_site_label
 _atom_site_symmetry_multiplicity
 _atom_site_fract_x
 _atom_site_fract_y
 _atom_site_fract_z
 _atom_site_occupancy
  Na  Na0  1  0.50000000  0.50000000  0.00000000  1
  Na  Na1  1  0.00000000  -0.00000000  0.50000000  1
  Si  Si2  1  0.00000000  -0.00000001  0.00000000  1
  Si  Si3  1  0.50000000  0.50000000  0.50000000  1
  Br  Br4  1  0.50000002  -0.00000003  0.74988160  1
  Br  Br5  1  0.00000003  0.49999997  0.25011841  1
  Br  Br6  1  0.49999997  0.00000003  0.25011841  1
  Br  Br7  1  -0.00000004  0.50000004  0.74988159  1
