# generated using pymatgen
data_Li3Br2O
_symmetry_space_group_name_H-M   'P 1'
_cell_length_a   5.66644486
_cell_length_b   9.27794833
_cell_length_c   7.75371937
_cell_angle_alpha   90.00083825
_cell_angle_beta   89.49665327
_cell_angle_gamma   90.00377829
_symmetry_Int_Tables_number   1
_chemical_formula_structural   Li3Br2O
_chemical_formula_sum   'Li12 Br8 O4'
_cell_volume   407.62042292
_cell_formula_units_Z   4
loop_
 _symmetry_equiv_pos_site_id
 _symmetry_equiv_pos_as_xyz
  1  'x, y, z'
loop_
 _atom_site_type_symbol
 _atom_site_label
 _atom_site_symmetry_multiplicity
 _atom_site_fract_x
 _atom_site_fract_y
 _atom_site_fract_z
 _atom_site_occupancy
  Li  Li0  1  0.25456842  0.15873101  0.10431941  1
  Li  Li1  1  0.75454282  0.84125777  0.10433550  1
  Li  Li2  1  0.50597737  0.98250515  0.85400072  1
  Li  Li3  1  0.00602647  0.01744423  0.85394690  1
  Li  Li4  1  -0.00748338  0.69781306  0.85581636  1
  Li  Li5  1  0.49258567  0.30220052  0.85579639  1
  Li  Li6  1  0.74549219  0.83863373  0.60447217  1
  Li  Li7  1  0.24558058  0.16133401  0.60450991  1
  Li  Li8  1  -0.00537303  0.98233662  0.35422111  1
  Li  Li9  1  0.49472620  0.01774722  0.35422589  1
  Li  Li10  1  0.50839305  0.69755485  0.35563378  1
  Li  Li11  1  0.00848265  0.30240622  0.35565776  1
  Br  Br12  1  0.38210454  0.48327003  0.12411292  1
  Br  Br13  1  -0.24821127  0.14838001  0.10092638  1
  Br  Br14  1  -0.11788042  0.51674523  0.12410743  1
  Br  Br15  1  0.25194056  0.85167084  0.10096313  1
  Br  Br16  1  0.61495476  0.51604889  0.62365575  1
  Br  Br17  1  0.24894977  0.85238633  0.60100274  1
  Br  Br18  1  0.11495524  0.48393327  0.62362199  1
  Br  Br19  1  0.74878060  0.14759354  0.60108470  1
  O  O20  1  0.22254736  0.14814762  0.35437365  1
  O  O21  1  0.72252537  0.85187759  0.35435950  1
  O  O22  1  0.77788561  0.85182895  0.85319405  1
  O  O23  1  0.27792888  0.14815330  0.85321809  1
