# generated using pymatgen
data_Li4I3N
_symmetry_space_group_name_H-M   'P 1'
_cell_length_a   6.62939756
_cell_length_b   9.05501158
_cell_length_c   7.84849142
_cell_angle_alpha   63.55972550
_cell_angle_beta   92.61769191
_cell_angle_gamma   92.79599933
_symmetry_Int_Tables_number   1
_chemical_formula_structural   Li4I3N
_chemical_formula_sum   'Li8 I6 N2'
_cell_volume   421.20425211
_cell_formula_units_Z   2
loop_
 _symmetry_equiv_pos_site_id
 _symmetry_equiv_pos_as_xyz
  1  'x, y, z'
loop_
 _atom_site_type_symbol
 _atom_site_label
 _atom_site_symmetry_multiplicity
 _atom_site_fract_x
 _atom_site_fract_y
 _atom_site_fract_z
 _atom_site_occupancy
  Li  Li0  1  -0.06845316  0.12310448  0.63058971  1
  Li  Li1  1  0.47653374  0.38574521  0.74779777  1
  Li  Li2  1  0.44227145  -0.02946008  0.02243705  1
  Li  Li3  1  0.04351306  0.60904609  0.87238641  1
  Li  Li4  1  0.81998971  0.31211872  0.02668268  1
  Li  Li5  1  0.39262650  0.15063085  0.24417319  1
  Li  Li6  1  0.15802519  0.56161820  0.27128111  1
  Li  Li7  1  0.73254123  0.49039328  0.32261685  1
  I  I8  1  0.01801406  0.41970228  0.66423797  1
  I  I9  1  0.51762929  0.15587904  0.60189267  1
  I  I10  1  0.50443632  0.70620263  0.39478083  1
  I  I11  1  0.03535053  0.86774738  0.96611902  1
  I  I12  1  -0.00199198  0.06321847  0.33242110  1
  I  I13  1  0.44680090  0.51429957  0.01662170  1
  N  N14  1  0.55667150  0.18909877  0.00991575  1
  N  N15  1  -0.07395832  0.48065511  0.13369355  1
