# generated using pymatgen
data_LiCCl3
_symmetry_space_group_name_H-M   'P 1'
_cell_length_a   6.05138143
_cell_length_b   7.35803389
_cell_length_c   10.77208008
_cell_angle_alpha   90.00010864
_cell_angle_beta   89.99925122
_cell_angle_gamma   90.00041717
_symmetry_Int_Tables_number   1
_chemical_formula_structural   LiCCl3
_chemical_formula_sum   'Li4 C4 Cl12'
_cell_volume   479.64054275
_cell_formula_units_Z   4
loop_
 _symmetry_equiv_pos_site_id
 _symmetry_equiv_pos_as_xyz
  1  'x, y, z'
loop_
 _atom_site_type_symbol
 _atom_site_label
 _atom_site_symmetry_multiplicity
 _atom_site_fract_x
 _atom_site_fract_y
 _atom_site_fract_z
 _atom_site_occupancy
  Li  Li0  1  0.37509948  0.14251617  -0.07516740  1
  Li  Li1  1  0.62489024  0.64251003  0.57515641  1
  Li  Li2  1  0.12489783  -0.14251713  0.42484956  1
  Li  Li3  1  -0.12490611  0.35748384  0.07516069  1
  C  C4  1  0.02059021  0.77139524  0.24032058  1
  C  C5  1  -0.02065335  0.27140223  0.25967534  1
  C  C6  1  0.47934042  0.22860385  0.74031996  1
  C  C7  1  0.52062602  0.72860688  0.75968321  1
  Cl  Cl8  1  0.19470029  0.64904106  0.14669323  1
  Cl  Cl9  1  0.53866069  0.40980843  -0.01621782  1
  Cl  Cl10  1  0.75355997  0.74173562  0.19397284  1
  Cl  Cl11  1  0.80533216  0.14904566  0.35330386  1
  Cl  Cl12  1  0.46134534  0.90980804  0.51621859  1
  Cl  Cl13  1  0.24646615  0.24172299  0.30603785  1
  Cl  Cl14  1  0.30532938  0.35094833  0.64669083  1
  Cl  Cl15  1  0.96133880  0.59019314  0.48378403  1
  Cl  Cl16  1  0.74646799  0.25828324  0.69395653  1
  Cl  Cl17  1  0.69469609  0.85095714  0.85331180  1
  Cl  Cl18  1  0.03867158  0.09018172  0.01621834  1
  Cl  Cl19  1  0.25354683  0.75827352  0.80603155  1
