# generated using pymatgen
data_Li5Br2O
_symmetry_space_group_name_H-M   'P 1'
_cell_length_a   6.35231156
_cell_length_b   6.35231150
_cell_length_c   7.32929733
_cell_angle_alpha   90.00000003
_cell_angle_beta   89.99999932
_cell_angle_gamma   89.99999950
_symmetry_Int_Tables_number   1
_chemical_formula_structural   Li5Br2O
_chemical_formula_sum   'Li10 Br4 O2'
_cell_volume   295.75079237
_cell_formula_units_Z   2
loop_
 _symmetry_equiv_pos_site_id
 _symmetry_equiv_pos_as_xyz
  1  'x, y, z'
loop_
 _atom_site_type_symbol
 _atom_site_label
 _atom_site_symmetry_multiplicity
 _atom_site_fract_x
 _atom_site_fract_y
 _atom_site_fract_z
 _atom_site_occupancy
  Li  Li0  1  -0.00000004  0.50000005  0.74999999  1
  Li  Li1  1  0.49999992  0.00000006  0.25000001  1
  Li  Li2  1  0.70229039  0.29770958  0.49999997  1
  Li  Li3  1  0.29770957  0.70229039  0.49999996  1
  Li  Li4  1  0.29770957  0.29770958  0.50000059  1
  Li  Li5  1  0.70229041  0.70229039  0.49999935  1
  Li  Li6  1  0.20229043  0.79770960  0.00000003  1
  Li  Li7  1  0.79770963  0.20229041  0.00000004  1
  Li  Li8  1  0.79770963  0.79770958  0.00000066  1
  Li  Li9  1  0.20229044  0.20229041  -0.00000059  1
  Br  Br10  1  0.50000003  0.50000000  0.00000010  1
  Br  Br11  1  -0.00000001  0.50000001  0.25000002  1
  Br  Br12  1  -0.00000001  -0.00000001  0.49999990  1
  Br  Br13  1  0.50000000  0.00000000  0.74999998  1
  O  O14  1  0.49999997  0.49999996  0.50000013  1
  O  O15  1  0.00000007  -0.00000000  -0.00000013  1
