# generated using pymatgen
data_Na3ICl
_symmetry_space_group_name_H-M   'P 1'
_cell_length_a   5.07971966
_cell_length_b   5.07974414
_cell_length_c   13.76482810
_cell_angle_alpha   89.99994736
_cell_angle_beta   89.99993711
_cell_angle_gamma   90.00000417
_symmetry_Int_Tables_number   1
_chemical_formula_structural   Na3ICl
_chemical_formula_sum   'Na6 I2 Cl2'
_cell_volume   355.18316737
_cell_formula_units_Z   2
loop_
 _symmetry_equiv_pos_site_id
 _symmetry_equiv_pos_as_xyz
  1  'x, y, z'
loop_
 _atom_site_type_symbol
 _atom_site_label
 _atom_site_symmetry_multiplicity
 _atom_site_fract_x
 _atom_site_fract_y
 _atom_site_fract_z
 _atom_site_occupancy
  Na  Na0  1  0.49999990  -0.00000007  0.05707717  1
  Na  Na1  1  0.00000010  0.50000008  0.94294303  1
  Na  Na2  1  -0.00000023  0.49999981  0.26615289  1
  Na  Na3  1  0.50000021  0.00000019  0.73380534  1
  Na  Na4  1  0.50000005  0.49999990  0.49997910  1
  Na  Na5  1  -0.00000008  0.00000009  0.49997833  1
  I  I6  1  0.00000030  0.50000024  0.71404756  1
  I  I7  1  0.49999974  -0.00000024  0.28597329  1
  Cl  Cl8  1  0.00000005  -0.00000005  0.00002031  1
  Cl  Cl9  1  0.49999995  0.50000006  0.00002297  1
