# generated using pymatgen
data_K2Br3O5
_symmetry_space_group_name_H-M   'P 1'
_cell_length_a   6.77749328
_cell_length_b   5.73685398
_cell_length_c   6.82496121
_cell_angle_alpha   109.28463992
_cell_angle_beta   88.15851003
_cell_angle_gamma   94.74030156
_symmetry_Int_Tables_number   1
_chemical_formula_structural   K2Br3O5
_chemical_formula_sum   'K2 Br3 O5'
_cell_volume   249.61486388
_cell_formula_units_Z   1
loop_
 _symmetry_equiv_pos_site_id
 _symmetry_equiv_pos_as_xyz
  1  'x, y, z'
loop_
 _atom_site_type_symbol
 _atom_site_label
 _atom_site_symmetry_multiplicity
 _atom_site_fract_x
 _atom_site_fract_y
 _atom_site_fract_z
 _atom_site_occupancy
  K  K0  1  0.03226445  -0.05259465  0.66029900  1
  K  K1  1  0.48702237  -0.19279520  0.20256871  1
  Br  Br2  1  0.54329944  0.23844131  -0.31169616  1
  Br  Br3  1  0.54779455  0.74211566  -0.30060615  1
  Br  Br4  1  0.17509085  0.29602985  0.22327309  1
  O  O5  1  0.14286868  0.61954415  0.31372166  1
  O  O6  1  0.74078503  0.23210478  0.18259514  1
  O  O7  1  0.04962434  0.47090680  0.83489810  1
  O  O8  1  0.72991742  0.46061087  0.23184392  1
  O  O9  1  0.05133286  0.68563643  0.96310269  1
