# generated using pymatgen
data_LiSiI2
_symmetry_space_group_name_H-M   'P 1'
_cell_length_a   5.89759545
_cell_length_b   4.19300424
_cell_length_c   11.66863818
_cell_angle_alpha   89.99995498
_cell_angle_beta   114.81065296
_cell_angle_gamma   90.00064406
_symmetry_Int_Tables_number   1
_chemical_formula_structural   LiSiI2
_chemical_formula_sum   'Li2 Si2 I4'
_cell_volume   261.91630652
_cell_formula_units_Z   2
loop_
 _symmetry_equiv_pos_site_id
 _symmetry_equiv_pos_as_xyz
  1  'x, y, z'
loop_
 _atom_site_type_symbol
 _atom_site_label
 _atom_site_symmetry_multiplicity
 _atom_site_fract_x
 _atom_site_fract_y
 _atom_site_fract_z
 _atom_site_occupancy
  Li  Li0  1  0.20288522  0.97867869  0.38732976  1
  Li  Li1  1  0.29711649  0.47867411  0.61267106  1
  Si  Si2  1  0.66576654  0.48014203  0.01532312  1
  Si  Si3  1  -0.16576670  -0.01982078  -0.01532346  1
  I  I4  1  -0.09257167  0.47869337  0.37517809  1
  I  I5  1  0.59257325  -0.02129146  0.62482235  1
  I  I6  1  0.27276592  -0.02085027  0.15870861  1
  I  I7  1  0.22723096  0.47910764  0.84129046  1
