# generated using pymatgen
data_NaIN3
_symmetry_space_group_name_H-M   'P 1'
_cell_length_a   5.15412155
_cell_length_b   5.23565840
_cell_length_c   11.42457349
_cell_angle_alpha   82.59357548
_cell_angle_beta   98.23206046
_cell_angle_gamma   118.52483429
_symmetry_Int_Tables_number   1
_chemical_formula_structural   NaIN3
_chemical_formula_sum   'Na2 I2 N6'
_cell_volume   267.42950849
_cell_formula_units_Z   2
loop_
 _symmetry_equiv_pos_site_id
 _symmetry_equiv_pos_as_xyz
  1  'x, y, z'
loop_
 _atom_site_type_symbol
 _atom_site_label
 _atom_site_symmetry_multiplicity
 _atom_site_fract_x
 _atom_site_fract_y
 _atom_site_fract_z
 _atom_site_occupancy
  Na  Na0  1  0.10091920  -0.03005560  0.42003801  1
  Na  Na1  1  -0.48143969  -0.18632982  0.05560716  1
  I  I2  1  0.52679727  0.64837757  0.71904260  1
  I  I3  1  0.21660161  0.11962714  0.16243792  1
  N  N4  1  0.34432111  0.48668110  0.45514763  1
  N  N5  1  0.57657134  0.70018673  0.42455185  1
  N  N6  1  0.34931933  0.70153887  0.51510320  1
  N  N7  1  0.73166235  0.35614685  0.94329702  1
  N  N8  1  0.67550258  0.61725365  0.91281379  1
  N  N9  1  0.95974490  0.58657352  0.93627608  1
