# generated using pymatgen
data_LiI2O
_symmetry_space_group_name_H-M   'P 1'
_cell_length_a   4.57454619
_cell_length_b   8.17918577
_cell_length_c   9.21956565
_cell_angle_alpha   58.23437501
_cell_angle_beta   65.00728610
_cell_angle_gamma   60.95834683
_symmetry_Int_Tables_number   1
_chemical_formula_structural   LiI2O
_chemical_formula_sum   'Li2 I4 O2'
_cell_volume   249.86124427
_cell_formula_units_Z   2
loop_
 _symmetry_equiv_pos_site_id
 _symmetry_equiv_pos_as_xyz
  1  'x, y, z'
loop_
 _atom_site_type_symbol
 _atom_site_label
 _atom_site_symmetry_multiplicity
 _atom_site_fract_x
 _atom_site_fract_y
 _atom_site_fract_z
 _atom_site_occupancy
  Li  Li0  1  -0.24426797  0.17806116  0.75957629  1
  Li  Li1  1  0.20694654  -0.11468139  0.20172218  1
  I  I2  1  0.94545603  0.71402085  0.08188034  1
  I  I3  1  0.02338138  0.76983284  0.65087541  1
  I  I4  1  0.06373616  0.27005411  0.89277624  1
  I  I5  1  -0.00777974  0.30756675  0.36839535  1
  O  O6  1  -0.00376724  -0.16079315  0.42888838  1
  O  O7  1  0.01629484  0.03593882  0.61588580  1
