# generated using pymatgen
data_Li4BBr2
_symmetry_space_group_name_H-M   'P 1'
_cell_length_a   10.22930100
_cell_length_b   7.48867399
_cell_length_c   6.84594679
_cell_angle_alpha   89.99955632
_cell_angle_beta   90.00022308
_cell_angle_gamma   89.99895293
_symmetry_Int_Tables_number   1
_chemical_formula_structural   Li4BBr2
_chemical_formula_sum   'Li16 B4 Br8'
_cell_volume   524.42622585
_cell_formula_units_Z   4
loop_
 _symmetry_equiv_pos_site_id
 _symmetry_equiv_pos_as_xyz
  1  'x, y, z'
loop_
 _atom_site_type_symbol
 _atom_site_label
 _atom_site_symmetry_multiplicity
 _atom_site_fract_x
 _atom_site_fract_y
 _atom_site_fract_z
 _atom_site_occupancy
  Li  Li0  1  0.18137573  0.00627156  0.06412570  1
  Li  Li1  1  0.00119189  0.70690183  0.07462665  1
  Li  Li2  1  0.31862287  0.00628751  0.56412504  1
  Li  Li3  1  0.49880682  0.70686156  0.57461431  1
  Li  Li4  1  0.68137900  -0.00627027  0.56419158  1
  Li  Li5  1  0.50121589  0.29310241  0.57471172  1
  Li  Li6  1  0.81858699  -0.00628348  0.06413269  1
  Li  Li7  1  -0.00120805  0.29312143  0.07453889  1
  Li  Li8  1  0.18141855  0.50627753  0.56409565  1
  Li  Li9  1  0.00121360  0.20687641  0.57455633  1
  Li  Li10  1  0.31859738  0.50626430  0.06414584  1
  Li  Li11  1  0.49877273  0.20689939  0.07469586  1
  Li  Li12  1  0.68136558  0.49371165  0.06416432  1
  Li  Li13  1  0.50117647  0.79312548  0.07462722  1
  Li  Li14  1  0.81864700  0.49373351  0.56417269  1
  Li  Li15  1  -0.00117504  0.79309995  0.57466752  1
  B  B16  1  0.49997142  0.00007525  0.80044863  1
  B  B17  1  -0.00002094  -0.00009148  0.30042136  1
  B  B18  1  0.49999630  0.49989872  0.30045376  1
  B  B19  1  0.00005474  0.50007382  0.80040728  1
  Br  Br20  1  0.71800417  0.25247350  0.80499030  1
  Br  Br21  1  0.28213341  0.74744659  0.80494696  1
  Br  Br22  1  0.21796893  0.74753939  0.30493910  1
  Br  Br23  1  0.78217636  0.25258427  0.30495890  1
  Br  Br24  1  0.71784135  0.75257979  0.30496162  1
  Br  Br25  1  0.28199017  0.24753042  0.30496988  1
  Br  Br26  1  0.21787004  0.24744357  0.80494013  1
  Br  Br27  1  0.78202662  0.75246540  0.80496160  1
