# generated using pymatgen
data_Na2IBr
_symmetry_space_group_name_H-M   'P 1'
_cell_length_a   4.46487017
_cell_length_b   7.61023860
_cell_length_c   8.82779691
_cell_angle_alpha   55.48903608
_cell_angle_beta   90.00000607
_cell_angle_gamma   90.00000800
_symmetry_Int_Tables_number   1
_chemical_formula_structural   Na2IBr
_chemical_formula_sum   'Na4 I2 Br2'
_cell_volume   247.17015419
_cell_formula_units_Z   2
loop_
 _symmetry_equiv_pos_site_id
 _symmetry_equiv_pos_as_xyz
  1  'x, y, z'
loop_
 _atom_site_type_symbol
 _atom_site_label
 _atom_site_symmetry_multiplicity
 _atom_site_fract_x
 _atom_site_fract_y
 _atom_site_fract_z
 _atom_site_occupancy
  Na  Na0  1  0.02036816  0.51304513  0.25536571  1
  Na  Na1  1  0.52121368  0.01433436  0.75363587  1
  Na  Na2  1  0.02121410  0.48566605  0.74636334  1
  Na  Na3  1  0.52036893  -0.01304501  0.24463393  1
  I  I4  1  0.52012618  0.50039169  0.00034131  1
  I  I5  1  0.02012656  0.99960811  0.49965914  1
  Br  Br6  1  0.02162459  -0.00008651  -0.00046231  1
  Br  Br7  1  0.52162447  0.50008619  0.50046302  1
