# generated using pymatgen
data_LiBr3O2
_symmetry_space_group_name_H-M   'P 1'
_cell_length_a   11.11410258
_cell_length_b   4.51300581
_cell_length_c   11.41379996
_cell_angle_alpha   90.17195043
_cell_angle_beta   89.26475821
_cell_angle_gamma   88.52025581
_symmetry_Int_Tables_number   1
_chemical_formula_structural   LiBr3O2
_chemical_formula_sum   'Li4 Br12 O8'
_cell_volume   572.25226950
_cell_formula_units_Z   4
loop_
 _symmetry_equiv_pos_site_id
 _symmetry_equiv_pos_as_xyz
  1  'x, y, z'
loop_
 _atom_site_type_symbol
 _atom_site_label
 _atom_site_symmetry_multiplicity
 _atom_site_fract_x
 _atom_site_fract_y
 _atom_site_fract_z
 _atom_site_occupancy
  Li  Li0  1  0.58055860  0.45131867  0.67837951  1
  Li  Li1  1  0.10570829  0.08132836  0.31210463  1
  Li  Li2  1  0.40320850  -0.04773622  0.79807833  1
  Li  Li3  1  0.92315177  0.58102426  0.19762439  1
  Br  Br4  1  0.09503275  0.83782384  0.57759326  1
  Br  Br5  1  0.84346731  0.52061418  0.59553254  1
  Br  Br6  1  0.87401959  0.08497829  0.29950782  1
  Br  Br7  1  0.63242816  0.51318586  0.37275906  1
  Br  Br8  1  0.36136619  -0.03153576  0.43712770  1
  Br  Br9  1  0.35816196  0.45561550  0.70513321  1
  Br  Br10  1  0.89642439  0.51474469  0.90715060  1
  Br  Br11  1  0.14073293  0.09995087  -0.06571957  1
  Br  Br12  1  0.14973910  0.57592016  0.21433104  1
  Br  Br13  1  0.39509177  0.01471420  0.09651447  1
  Br  Br14  1  0.64428405  0.41670003  0.07139077  1
  Br  Br15  1  0.63193020  -0.05013570  0.77824107  1
  O  O16  1  0.65317373  0.43226915  0.51942995  1
  O  O17  1  0.54829315  -0.16097450  0.35871132  1
  O  O18  1  0.19876838  0.04546871  0.45782205  1
  O  O19  1  -0.02017652  0.62104912  0.67726049  1
  O  O20  1  0.32838997  -0.01404070  0.95736007  1
  O  O21  1  0.46367622  0.36507160  0.11283506  1
  O  O22  1  0.82982493  0.53846856  0.04939874  1
  O  O23  1  -0.03725542  0.15417684  0.89143348  1
