# generated using pymatgen
data_NaPC4
_symmetry_space_group_name_H-M   'P 1'
_cell_length_a   7.32364833
_cell_length_b   7.32364972
_cell_length_c   7.32364691
_cell_angle_alpha   90.00001078
_cell_angle_beta   90.00002640
_cell_angle_gamma   89.99997977
_symmetry_Int_Tables_number   1
_chemical_formula_structural   NaPC4
_chemical_formula_sum   'Na6 P6 C24'
_cell_volume   392.80991717
_cell_formula_units_Z   6
loop_
 _symmetry_equiv_pos_site_id
 _symmetry_equiv_pos_as_xyz
  1  'x, y, z'
loop_
 _atom_site_type_symbol
 _atom_site_label
 _atom_site_symmetry_multiplicity
 _atom_site_fract_x
 _atom_site_fract_y
 _atom_site_fract_z
 _atom_site_occupancy
  Na  Na0  1  0.50000068  0.50000146  0.49999912  1
  Na  Na1  1  -0.00000069  -0.00000146  0.00000088  1
  Na  Na2  1  0.75000079  0.74999953  0.75000051  1
  Na  Na3  1  0.24999948  0.25000026  0.75000050  1
  Na  Na4  1  0.75000044  0.25000029  0.24999932  1
  Na  Na5  1  0.24999937  0.74999979  0.24999960  1
  P  P6  1  0.49999981  -0.00000163  0.50000026  1
  P  P7  1  0.50000079  0.00000040  -0.00000027  1
  P  P8  1  0.49999979  0.49999964  0.00000097  1
  P  P9  1  -0.00000076  0.49999954  0.50000024  1
  P  P10  1  0.00000014  0.00000045  0.49999904  1
  P  P11  1  0.00000023  0.50000160  -0.00000023  1
  C  C12  1  0.09588328  0.66271226  0.66271684  1
  C  C13  1  0.66271710  0.09588318  0.66271223  1
  C  C14  1  0.66271220  0.66271713  0.09588312  1
  C  C15  1  0.83728787  0.40411657  0.83728319  1
  C  C16  1  0.40411684  0.83728291  0.83728788  1
  C  C17  1  0.83728314  0.83728789  0.40411670  1
  C  C18  1  0.33728691  0.33728212  0.09588233  1
  C  C19  1  0.16271779  0.16271302  0.40411762  1
  C  C20  1  0.90411744  0.33728696  0.66271770  1
  C  C21  1  0.16271273  0.59588302  0.83728257  1
  C  C22  1  0.59588268  0.16271764  0.83728715  1
  C  C23  1  0.33728240  0.90411712  0.66271278  1
  C  C24  1  0.09588284  0.33728743  0.33728264  1
  C  C25  1  0.40411688  0.16271703  0.16271234  1
  C  C26  1  0.83728247  0.16271265  0.59588256  1
  C  C27  1  0.66271697  0.90411651  0.33728787  1
  C  C28  1  0.66271266  0.33728266  0.90411731  1
  C  C29  1  0.83728796  0.59588359  0.16271686  1
  C  C30  1  0.33728313  0.09588333  0.33728784  1
  C  C31  1  0.16271213  0.40411668  0.16271698  1
  C  C32  1  0.33728759  0.66271743  0.90411729  1
  C  C33  1  0.59588351  0.83728318  0.16271189  1
  C  C34  1  0.16271686  0.83728775  0.59588311  1
  C  C35  1  0.90411653  0.66271205  0.33728326  1
