# generated using pymatgen
data_Li3SiBr4
_symmetry_space_group_name_H-M   'P 1'
_cell_length_a   7.12709887
_cell_length_b   7.12709822
_cell_length_c   7.10784363
_cell_angle_alpha   90.00001152
_cell_angle_beta   90.00001867
_cell_angle_gamma   90.00001397
_symmetry_Int_Tables_number   1
_chemical_formula_structural   Li3SiBr4
_chemical_formula_sum   'Li6 Si2 Br8'
_cell_volume   361.04671017
_cell_formula_units_Z   2
loop_
 _symmetry_equiv_pos_site_id
 _symmetry_equiv_pos_as_xyz
  1  'x, y, z'
loop_
 _atom_site_type_symbol
 _atom_site_label
 _atom_site_symmetry_multiplicity
 _atom_site_fract_x
 _atom_site_fract_y
 _atom_site_fract_z
 _atom_site_occupancy
  Li  Li0  1  0.50000000  0.50000000  0.50000000  1
  Li  Li1  1  -0.00000000  -0.00000000  -0.00000000  1
  Li  Li2  1  0.50000000  0.00000000  0.50000000  1
  Li  Li3  1  0.50000000  0.00000000  0.00000000  1
  Li  Li4  1  -0.00000000  0.50000000  -0.00000000  1
  Li  Li5  1  0.00000000  0.50000000  0.50000000  1
  Si  Si6  1  0.50000000  0.50000000  -0.00000000  1
  Si  Si7  1  -0.00000000  -0.00000000  0.50000000  1
  Br  Br8  1  0.69426284  0.80573710  0.25000002  1
  Br  Br9  1  0.30573715  0.19426290  0.74999998  1
  Br  Br10  1  0.30573715  0.19426290  0.24999999  1
  Br  Br11  1  0.69426285  0.80573710  0.75000001  1
  Br  Br12  1  0.19426292  0.69426299  0.25000001  1
  Br  Br13  1  0.80573708  0.30573701  0.74999998  1
  Br  Br14  1  0.80573707  0.30573703  0.24999998  1
  Br  Br15  1  0.19426294  0.69426297  0.75000002  1
