# generated using pymatgen
data_Na2SiI
_symmetry_space_group_name_H-M   'P 1'
_cell_length_a   4.77435920
_cell_length_b   4.77435921
_cell_length_c   9.33352158
_cell_angle_alpha   90.00000229
_cell_angle_beta   90.00000453
_cell_angle_gamma   90.00004015
_symmetry_Int_Tables_number   1
_chemical_formula_structural   Na2SiI
_chemical_formula_sum   'Na4 Si2 I2'
_cell_volume   212.75301179
_cell_formula_units_Z   2
loop_
 _symmetry_equiv_pos_site_id
 _symmetry_equiv_pos_as_xyz
  1  'x, y, z'
loop_
 _atom_site_type_symbol
 _atom_site_label
 _atom_site_symmetry_multiplicity
 _atom_site_fract_x
 _atom_site_fract_y
 _atom_site_fract_z
 _atom_site_occupancy
  Na  Na0  1  -0.00000001  0.50000001  0.24989057  1
  Na  Na1  1  0.49999999  -0.00000000  0.75010944  1
  Na  Na2  1  0.00000001  0.50000000  0.74987816  1
  Na  Na3  1  0.50000002  -0.00000001  0.25012185  1
  Si  Si4  1  -0.00000000  -0.00000001  -0.00000001  1
  Si  Si5  1  0.50000000  0.50000002  0.50000000  1
  I  I6  1  0.50000000  0.49999999  -0.00000001  1
  I  I7  1  0.00000000  -0.00000001  0.49999999  1
