# generated using pymatgen
data_Li4PI2
_symmetry_space_group_name_H-M   'P 1'
_cell_length_a   9.10332794
_cell_length_b   9.10333411
_cell_length_c   8.97858317
_cell_angle_alpha   90.00002829
_cell_angle_beta   90.00002940
_cell_angle_gamma   89.99999980
_symmetry_Int_Tables_number   1
_chemical_formula_structural   Li4PI2
_chemical_formula_sum   'Li16 P4 I8'
_cell_volume   744.06089578
_cell_formula_units_Z   4
loop_
 _symmetry_equiv_pos_site_id
 _symmetry_equiv_pos_as_xyz
  1  'x, y, z'
loop_
 _atom_site_type_symbol
 _atom_site_label
 _atom_site_symmetry_multiplicity
 _atom_site_fract_x
 _atom_site_fract_y
 _atom_site_fract_z
 _atom_site_occupancy
  Li  Li0  1  0.49999997  0.50000007  0.00000018  1
  Li  Li1  1  0.00000030  -0.00000023  0.50000014  1
  Li  Li2  1  0.49999991  0.00000006  0.75000004  1
  Li  Li3  1  -0.00000006  0.50000006  0.24999985  1
  Li  Li4  1  0.00000013  0.00000037  0.17300884  1
  Li  Li5  1  -0.00000026  -0.00000007  0.82699123  1
  Li  Li6  1  0.73302253  0.00000002  0.00080912  1
  Li  Li7  1  0.26697732  0.00000002  0.00080939  1
  Li  Li8  1  -0.00000001  0.26697779  0.99919095  1
  Li  Li9  1  -0.00000006  0.73302241  0.99919067  1
  Li  Li10  1  0.49999995  0.49999985  0.32699124  1
  Li  Li11  1  0.50000029  0.50000006  0.67300881  1
  Li  Li12  1  0.23302229  0.50000006  0.50080897  1
  Li  Li13  1  0.76697773  0.50000001  0.50080921  1
  Li  Li14  1  0.49999995  0.76697748  0.49919090  1
  Li  Li15  1  0.49999996  0.23302257  0.49919052  1
  P  P16  1  0.50000005  -0.00000010  0.13634447  1
  P  P17  1  0.00000008  0.49999995  0.86366390  1
  P  P18  1  0.00000009  0.49999990  0.63633623  1
  P  P19  1  0.50000008  -0.00000010  0.36365550  1
  I  I20  1  0.28283863  0.21716111  0.74999997  1
  I  I21  1  0.78283866  0.71716105  0.24999997  1
  I  I22  1  0.21716128  0.71716109  0.25000022  1
  I  I23  1  0.78283870  0.28283886  0.24999975  1
  I  I24  1  0.71716129  0.21716116  0.75000021  1
  I  I25  1  0.28283866  0.78283885  0.74999973  1
  I  I26  1  0.21716122  0.28283882  0.25000000  1
  I  I27  1  0.71716132  0.78283886  0.74999997  1
