# generated using pymatgen
data_NaI3Cl4
_symmetry_space_group_name_H-M   'P 1'
_cell_length_a   7.75651542
_cell_length_b   7.75634467
_cell_length_c   7.75624923
_cell_angle_alpha   90.00000788
_cell_angle_beta   90.00000157
_cell_angle_gamma   89.99997853
_symmetry_Int_Tables_number   1
_chemical_formula_structural   NaI3Cl4
_chemical_formula_sum   'Na2 I6 Cl8'
_cell_volume   466.63307198
_cell_formula_units_Z   2
loop_
 _symmetry_equiv_pos_site_id
 _symmetry_equiv_pos_as_xyz
  1  'x, y, z'
loop_
 _atom_site_type_symbol
 _atom_site_label
 _atom_site_symmetry_multiplicity
 _atom_site_fract_x
 _atom_site_fract_y
 _atom_site_fract_z
 _atom_site_occupancy
  Na  Na0  1  0.49999993  0.49999979  0.49999993  1
  Na  Na1  1  -0.00000009  -0.00000022  0.00000001  1
  I  I2  1  0.50000010  0.00000007  0.00000007  1
  I  I3  1  0.00000009  0.00000016  0.50000004  1
  I  I4  1  0.50000011  0.50000012  -0.00000002  1
  I  I5  1  -0.00000015  0.50000001  -0.00000004  1
  I  I6  1  0.00000010  0.49999997  0.50000004  1
  I  I7  1  0.49999990  0.00000003  0.50000006  1
  Cl  Cl8  1  0.69580291  0.69586619  0.30416614  1
  Cl  Cl9  1  0.69580287  0.30413390  0.69583331  1
  Cl  Cl10  1  0.30419703  0.69586603  0.69583327  1
  Cl  Cl11  1  0.30419708  0.30413397  0.30416719  1
  Cl  Cl12  1  0.19586526  0.19582576  0.80413558  1
  Cl  Cl13  1  0.80413483  0.19582571  0.19586383  1
  Cl  Cl14  1  0.19586517  0.80417418  0.19586390  1
  Cl  Cl15  1  0.80413486  0.80417433  0.80413670  1
