# generated using pymatgen
data_Li4BrN
_symmetry_space_group_name_H-M   'P 1'
_cell_length_a   10.95454343
_cell_length_b   11.00470029
_cell_length_c   6.16912237
_cell_angle_alpha   89.99995233
_cell_angle_beta   90.00054167
_cell_angle_gamma   90.00247145
_symmetry_Int_Tables_number   1
_chemical_formula_structural   Li4BrN
_chemical_formula_sum   'Li32 Br8 N8'
_cell_volume   743.69675261
_cell_formula_units_Z   8
loop_
 _symmetry_equiv_pos_site_id
 _symmetry_equiv_pos_as_xyz
  1  'x, y, z'
loop_
 _atom_site_type_symbol
 _atom_site_label
 _atom_site_symmetry_multiplicity
 _atom_site_fract_x
 _atom_site_fract_y
 _atom_site_fract_z
 _atom_site_occupancy
  Li  Li0  1  0.28098116  0.09930101  -0.01475710  1
  Li  Li1  1  0.21902208  0.40069472  -0.01474732  1
  Li  Li2  1  0.49542463  0.50835788  0.31384573  1
  Li  Li3  1  0.61679781  0.17823833  -0.04644144  1
  Li  Li4  1  0.43144220  0.24603700  -0.27272769  1
  Li  Li5  1  0.00457168  0.50836178  0.81384412  1
  Li  Li6  1  0.88321226  0.17827268  0.45353489  1
  Li  Li7  1  0.06856712  0.24604360  0.22721545  1
  Li  Li8  1  0.50457902  0.49165315  0.68615023  1
  Li  Li9  1  0.38320881  0.82175562  0.04645981  1
  Li  Li10  1  0.56856639  0.75396002  0.27272268  1
  Li  Li11  1  -0.00457758  0.49164768  0.18615544  1
  Li  Li12  1  0.11677683  0.82172497  0.54647677  1
  Li  Li13  1  0.93142585  0.75395515  0.77277914  1
  Li  Li14  1  0.78096848  0.59930139  0.01474610  1
  Li  Li15  1  0.71902596  0.90069228  0.01473856  1
  Li  Li16  1  0.28097499  0.40065389  0.48525247  1
  Li  Li17  1  0.21902846  0.09934204  0.48524565  1
  Li  Li18  1  0.49543139  -0.00835557  0.81384316  1
  Li  Li19  1  0.61678630  0.32173334  0.45354047  1
  Li  Li20  1  0.43143354  0.25395771  0.22723015  1
  Li  Li21  1  0.00457746  -0.00835130  0.31385376  1
  Li  Li22  1  0.88320512  0.32175867  -0.04646914  1
  Li  Li23  1  0.06856726  0.25395747  -0.27273669  1
  Li  Li24  1  0.50457612  0.00835423  0.18616368  1
  Li  Li25  1  0.38321842  0.67827644  0.54644949  1
  Li  Li26  1  0.56856356  0.74604539  0.77277691  1
  Li  Li27  1  -0.00458581  0.00835648  0.68615337  1
  Li  Li28  1  0.11679119  0.67824662  0.04646012  1
  Li  Li29  1  0.93143499  0.74604676  0.27275025  1
  Li  Li30  1  0.78096180  0.90065643  0.51473956  1
  Li  Li31  1  0.71903620  0.59934461  0.51474877  1
  Br  Br32  1  0.84357460  0.40677274  0.51446915  1
  Br  Br33  1  0.65641000  0.40675128  0.01448689  1
  Br  Br34  1  0.15642634  0.59323419  0.48552212  1
  Br  Br35  1  0.34359025  0.59325078  -0.01449366  1
  Br  Br36  1  0.84359132  0.09324989  0.01449541  1
  Br  Br37  1  0.65642901  0.09323186  0.51448267  1
  Br  Br38  1  0.15640781  0.90674917  -0.01447936  1
  Br  Br39  1  0.34357304  0.90677079  0.48553281  1
  N  N40  1  0.05492222  0.35905122  -0.01489347  1
  N  N41  1  0.94507112  0.64093986  0.01489411  1
  N  N42  1  0.55493568  0.64093934  0.51490051  1
  N  N43  1  0.44507059  0.35905564  0.48509888  1
  N  N44  1  0.05492638  0.14094330  0.48510198  1
  N  N45  1  0.94506148  0.85904741  0.51488734  1
  N  N46  1  0.44507934  0.14094499  -0.01490038  1
  N  N47  1  0.55493710  0.85904709  0.01489766  1
