# generated using pymatgen
data_Li2BrO
_symmetry_space_group_name_H-M   'P 1'
_cell_length_a   3.90814037
_cell_length_b   3.90834291
_cell_length_c   7.64834367
_cell_angle_alpha   90.00008311
_cell_angle_beta   90.00025389
_cell_angle_gamma   90.02931334
_symmetry_Int_Tables_number   1
_chemical_formula_structural   Li2BrO
_chemical_formula_sum   'Li4 Br2 O2'
_cell_volume   116.82348328
_cell_formula_units_Z   2
loop_
 _symmetry_equiv_pos_site_id
 _symmetry_equiv_pos_as_xyz
  1  'x, y, z'
loop_
 _atom_site_type_symbol
 _atom_site_label
 _atom_site_symmetry_multiplicity
 _atom_site_fract_x
 _atom_site_fract_y
 _atom_site_fract_z
 _atom_site_occupancy
  Li  Li0  1  0.00000120  0.50000032  0.55818207  1
  Li  Li1  1  0.50000106  0.00000015  0.56001094  1
  Li  Li2  1  0.49999861  -0.00000028  0.05823123  1
  Li  Li3  1  -0.00000070  0.49999982  0.05989844  1
  Br  Br4  1  0.49999979  0.50000006  0.80953293  1
  Br  Br5  1  0.50000020  0.49999990  0.30952581  1
  O  O6  1  0.00000115  0.00000030  0.55920811  1
  O  O7  1  -0.00000130  -0.00000027  0.05928709  1
