# generated using pymatgen
data_K2IO6
_symmetry_space_group_name_H-M   'P 1'
_cell_length_a   7.14368194
_cell_length_b   7.14470084
_cell_length_c   7.98716084
_cell_angle_alpha   89.99562150
_cell_angle_beta   90.00437120
_cell_angle_gamma   119.98511681
_symmetry_Int_Tables_number   1
_chemical_formula_structural   K2IO6
_chemical_formula_sum   'K4 I2 O12'
_cell_volume   353.09724701
_cell_formula_units_Z   2
loop_
 _symmetry_equiv_pos_site_id
 _symmetry_equiv_pos_as_xyz
  1  'x, y, z'
loop_
 _atom_site_type_symbol
 _atom_site_label
 _atom_site_symmetry_multiplicity
 _atom_site_fract_x
 _atom_site_fract_y
 _atom_site_fract_z
 _atom_site_occupancy
  K  K0  1  0.66643835  0.33338132  0.88318675  1
  K  K1  1  0.33318853  0.66650588  0.88318699  1
  K  K2  1  0.33344857  0.66664864  0.38319159  1
  K  K3  1  0.66672399  0.33354259  0.38319255  1
  I  I4  1  0.00120629  0.00031059  0.88337297  1
  I  I5  1  -0.00088423  -0.00041088  0.38341514  1
  O  O6  1  -0.00005572  0.58499519  0.13393290  1
  O  O7  1  0.58505957  0.00002273  0.13342124  1
  O  O8  1  0.41511912  0.41519941  0.13424400  1
  O  O9  1  -0.00001730  0.40206116  0.13370869  1
  O  O10  1  0.40213578  0.00006287  0.13429767  1
  O  O11  1  0.59805500  0.59813263  0.13341217  1
  O  O12  1  0.58487340  0.58492678  0.63421727  1
  O  O13  1  -0.00004003  0.41484913  0.63390846  1
  O  O14  1  0.41497350  0.00001522  0.63335725  1
  O  O15  1  0.40192983  0.40199335  0.63344293  1
  O  O16  1  0.59792574  -0.00001874  0.63431545  1
  O  O17  1  -0.00008038  0.59778214  0.63377142  1
