# generated using pymatgen
data_Na2SiO6
_symmetry_space_group_name_H-M   'P 1'
_cell_length_a   5.68035283
_cell_length_b   4.37927149
_cell_length_c   9.82882132
_cell_angle_alpha   91.27425659
_cell_angle_beta   90.23722141
_cell_angle_gamma   84.23944656
_symmetry_Int_Tables_number   1
_chemical_formula_structural   Na2SiO6
_chemical_formula_sum   'Na4 Si2 O12'
_cell_volume   243.20454496
_cell_formula_units_Z   2
loop_
 _symmetry_equiv_pos_site_id
 _symmetry_equiv_pos_as_xyz
  1  'x, y, z'
loop_
 _atom_site_type_symbol
 _atom_site_label
 _atom_site_symmetry_multiplicity
 _atom_site_fract_x
 _atom_site_fract_y
 _atom_site_fract_z
 _atom_site_occupancy
  Na  Na0  1  -0.03902989  0.43376406  0.77208216  1
  Na  Na1  1  0.54921743  -0.02332448  0.74965803  1
  Na  Na2  1  -0.04707406  0.43873562  0.22105336  1
  Na  Na3  1  0.52257765  0.00493124  0.26891721  1
  Si  Si4  1  -0.05211039  -0.16224850  0.49605052  1
  Si  Si5  1  0.46283851  0.44090195  0.00690167  1
  O  O6  1  0.57477514  0.49917989  0.86328193  1
  O  O7  1  0.56826315  0.52648787  0.15088829  1
  O  O8  1  -0.04966951  -0.03031933  0.64790540  1
  O  O9  1  -0.06747938  -0.01566725  0.35004640  1
  O  O10  1  0.25541582  0.40279105  0.38848002  1
  O  O11  1  0.18571469  0.54290690  0.50788468  1
  O  O12  1  0.64712110  0.47887313  0.59345348  1
  O  O13  1  0.70932239  0.60657602  0.47578331  1
  O  O14  1  0.16558211  0.40127082  0.00176448  1
  O  O15  1  0.89355876  0.92435938  0.93561988  1
  O  O16  1  0.88107245  0.93432852  0.06164586  1
  O  O17  1  0.33990403  0.09645312  0.00858333  1
