# generated using pymatgen
data_NaCI2
_symmetry_space_group_name_H-M   'P 1'
_cell_length_a   5.67242335
_cell_length_b   5.66955017
_cell_length_c   6.10819530
_cell_angle_alpha   96.75412084
_cell_angle_beta   82.97452361
_cell_angle_gamma   125.63949037
_symmetry_Int_Tables_number   1
_chemical_formula_structural   NaCI2
_chemical_formula_sum   'Na1 C1 I2'
_cell_volume   158.18638269
_cell_formula_units_Z   1
loop_
 _symmetry_equiv_pos_site_id
 _symmetry_equiv_pos_as_xyz
  1  'x, y, z'
loop_
 _atom_site_type_symbol
 _atom_site_label
 _atom_site_symmetry_multiplicity
 _atom_site_fract_x
 _atom_site_fract_y
 _atom_site_fract_z
 _atom_site_occupancy
  Na  Na0  1  -0.00104194  0.00315976  0.60624816  1
  C  C1  1  0.71817819  0.28449338  0.19678003  1
  I  I2  1  0.67951420  0.32201126  0.57392813  1
  I  I3  1  -0.06331712  0.05700226  0.12031434  1
