# generated using pymatgen
data_LiCBr2
_symmetry_space_group_name_H-M   'P 1'
_cell_length_a   6.85104474
_cell_length_b   7.23378071
_cell_length_c   3.58038534
_cell_angle_alpha   90.00001379
_cell_angle_beta   90.00000033
_cell_angle_gamma   90.00001021
_symmetry_Int_Tables_number   1
_chemical_formula_structural   LiCBr2
_chemical_formula_sum   'Li2 C2 Br4'
_cell_volume   177.44015696
_cell_formula_units_Z   2
loop_
 _symmetry_equiv_pos_site_id
 _symmetry_equiv_pos_as_xyz
  1  'x, y, z'
loop_
 _atom_site_type_symbol
 _atom_site_label
 _atom_site_symmetry_multiplicity
 _atom_site_fract_x
 _atom_site_fract_y
 _atom_site_fract_z
 _atom_site_occupancy
  Li  Li0  1  0.00000001  -0.00000002  0.50000002  1
  Li  Li1  1  0.50000000  0.50000002  -0.00000003  1
  C  C2  1  0.50000000  0.00000001  -0.00000040  1
  C  C3  1  0.00000000  0.49999998  0.50000032  1
  Br  Br4  1  -0.00000007  0.73416220  -0.00000002  1
  Br  Br5  1  0.00000007  0.26583781  -0.00000029  1
  Br  Br6  1  0.49999995  0.76583780  0.50000007  1
  Br  Br7  1  0.50000004  0.23416220  0.50000033  1
