# generated using pymatgen
data_Li6PI5
_symmetry_space_group_name_H-M   'P 1'
_cell_length_a   8.93667551
_cell_length_b   10.75093272
_cell_length_c   7.87323305
_cell_angle_alpha   91.75162312
_cell_angle_beta   92.60711569
_cell_angle_gamma   97.72527254
_symmetry_Int_Tables_number   1
_chemical_formula_structural   Li6PI5
_chemical_formula_sum   'Li12 P2 I10'
_cell_volume   748.28571677
_cell_formula_units_Z   2
loop_
 _symmetry_equiv_pos_site_id
 _symmetry_equiv_pos_as_xyz
  1  'x, y, z'
loop_
 _atom_site_type_symbol
 _atom_site_label
 _atom_site_symmetry_multiplicity
 _atom_site_fract_x
 _atom_site_fract_y
 _atom_site_fract_z
 _atom_site_occupancy
  Li  Li0  1  0.55943005  0.25442591  0.17447792  1
  Li  Li1  1  0.38378623  0.48022260  0.71528134  1
  Li  Li2  1  0.71145771  0.63996960  0.78887631  1
  Li  Li3  1  0.53122789  0.55479749  0.17324973  1
  Li  Li4  1  0.11336319  0.90591572  0.86315675  1
  Li  Li5  1  0.96573807  0.11279595  0.89191851  1
  Li  Li6  1  0.26568390  0.16290345  0.69846142  1
  Li  Li7  1  0.64885875  0.93761405  0.95327015  1
  Li  Li8  1  0.97746255  0.22212190  0.53537151  1
  Li  Li9  1  -0.00254267  0.80713779  0.36195587  1
  Li  Li10  1  0.12524252  0.05464910  0.27070413  1
  Li  Li11  1  0.79697379  0.95266966  0.38301852  1
  P  P12  1  -0.09109398  -0.07056389  0.09468581  1
  P  P13  1  0.04070295  -0.00163302  0.58700656  1
  I  I14  1  0.62179351  0.40122826  0.89881652  1
  I  I15  1  0.37228535  0.36085039  0.38621485  1
  I  I16  1  0.71421174  0.68252035  0.44528326  1
  I  I17  1  0.44856801  0.71337109  0.91548940  1
  I  I18  1  0.11061462  0.36287171  0.80800994  1
  I  I19  1  -0.13806227  0.20718902  0.20708180  1
  I  I20  1  -0.03326212  0.70076516  0.00547229  1
  I  I21  1  0.36718884  0.06592381  0.00940128  1
  I  I22  1  0.29158020  -0.08956722  0.48834393  1
  I  I23  1  0.71879117  0.08182110  0.66371687  1
