# generated using pymatgen
data_NaIO
_symmetry_space_group_name_H-M   'P 1'
_cell_length_a   4.53389582
_cell_length_b   4.53573867
_cell_length_c   7.68029149
_cell_angle_alpha   89.95078919
_cell_angle_beta   89.97451736
_cell_angle_gamma   90.60377342
_symmetry_Int_Tables_number   1
_chemical_formula_structural   NaIO
_chemical_formula_sum   'Na2 I2 O2'
_cell_volume   157.93302232
_cell_formula_units_Z   2
loop_
 _symmetry_equiv_pos_site_id
 _symmetry_equiv_pos_as_xyz
  1  'x, y, z'
loop_
 _atom_site_type_symbol
 _atom_site_label
 _atom_site_symmetry_multiplicity
 _atom_site_fract_x
 _atom_site_fract_y
 _atom_site_fract_z
 _atom_site_occupancy
  Na  Na0  1  0.00209966  0.00220900  0.51401281  1
  Na  Na1  1  0.51444566  0.51417750  -0.05696968  1
  I  I2  1  0.03336777  0.03348093  0.08150211  1
  I  I3  1  0.50257016  0.50273127  0.52692640  1
  O  O4  1  0.00277102  0.44478079  0.02972555  1
  O  O5  1  0.44474573  0.00262052  0.02980281  1
