# generated using pymatgen
data_Na2BrN
_symmetry_space_group_name_H-M   'P 1'
_cell_length_a   5.67893388
_cell_length_b   4.39514697
_cell_length_c   6.67083593
_cell_angle_alpha   89.99999628
_cell_angle_beta   90.00024428
_cell_angle_gamma   90.00046152
_symmetry_Int_Tables_number   1
_chemical_formula_structural   Na2BrN
_chemical_formula_sum   'Na4 Br2 N2'
_cell_volume   166.50239044
_cell_formula_units_Z   2
loop_
 _symmetry_equiv_pos_site_id
 _symmetry_equiv_pos_as_xyz
  1  'x, y, z'
loop_
 _atom_site_type_symbol
 _atom_site_label
 _atom_site_symmetry_multiplicity
 _atom_site_fract_x
 _atom_site_fract_y
 _atom_site_fract_z
 _atom_site_occupancy
  Na  Na0  1  -0.06872555  0.49783655  0.22092170  1
  Na  Na1  1  -0.06871749  0.49783200  0.77908729  1
  Na  Na2  1  0.43125766  0.00216975  0.77908246  1
  Na  Na3  1  0.43124962  0.00216528  0.22092565  1
  Br  Br4  1  0.33881564  0.49982167  0.49999670  1
  Br  Br5  1  0.83880967  0.00017497  0.49999671  1
  N  N6  1  0.54861467  0.52726957  -0.00000520  1
  N  N7  1  0.04869578  -0.02726979  -0.00000530  1
