# generated using pymatgen
data_Na3(BI)2
_symmetry_space_group_name_H-M   'P 1'
_cell_length_a   8.40426283
_cell_length_b   8.40436183
_cell_length_c   6.99464980
_cell_angle_alpha   89.99999826
_cell_angle_beta   89.99999858
_cell_angle_gamma   120.02545613
_symmetry_Int_Tables_number   1
_chemical_formula_structural   Na3(BI)2
_chemical_formula_sum   'Na6 B4 I4'
_cell_volume   427.74950501
_cell_formula_units_Z   2
loop_
 _symmetry_equiv_pos_site_id
 _symmetry_equiv_pos_as_xyz
  1  'x, y, z'
loop_
 _atom_site_type_symbol
 _atom_site_label
 _atom_site_symmetry_multiplicity
 _atom_site_fract_x
 _atom_site_fract_y
 _atom_site_fract_z
 _atom_site_occupancy
  Na  Na0  1  0.50026721  0.00048293  0.24999937  1
  Na  Na1  1  -0.00048237  0.49973494  0.25000062  1
  Na  Na2  1  0.50024724  0.49975648  0.25000000  1
  Na  Na3  1  0.00048284  0.50026630  0.74999938  1
  Na  Na4  1  0.49973562  -0.00048244  0.75000063  1
  Na  Na5  1  0.49975631  0.50024698  0.75000000  1
  B  B6  1  -0.00000260  -0.00000112  0.12526107  1
  B  B7  1  -0.00000223  -0.00000075  0.37473893  1
  B  B8  1  -0.00000155  -0.00000219  0.62526082  1
  B  B9  1  -0.00000118  -0.00000181  0.87473918  1
  I  I10  1  0.33335308  0.66665126  0.00024540  1
  I  I11  1  0.33335309  0.66665127  0.49975461  1
  I  I12  1  0.66664727  0.33334907  -0.00024539  1
  I  I13  1  0.66664727  0.33334907  0.50024538  1
