# generated using pymatgen
data_Li2ICl
_symmetry_space_group_name_H-M   'P 1'
_cell_length_a   6.92171358
_cell_length_b   6.92164027
_cell_length_c   8.07284620
_cell_angle_alpha   89.99938871
_cell_angle_beta   90.00106714
_cell_angle_gamma   89.99282412
_symmetry_Int_Tables_number   1
_chemical_formula_structural   Li2ICl
_chemical_formula_sum   'Li8 I4 Cl4'
_cell_volume   386.76692140
_cell_formula_units_Z   4
loop_
 _symmetry_equiv_pos_site_id
 _symmetry_equiv_pos_as_xyz
  1  'x, y, z'
loop_
 _atom_site_type_symbol
 _atom_site_label
 _atom_site_symmetry_multiplicity
 _atom_site_fract_x
 _atom_site_fract_y
 _atom_site_fract_z
 _atom_site_occupancy
  Li  Li0  1  0.77700647  0.25796913  0.19425112  1
  Li  Li1  1  0.22297520  0.25795498  0.19433244  1
  Li  Li2  1  0.77701041  0.74203394  0.19434075  1
  Li  Li3  1  0.22297311  0.74204496  0.19428739  1
  Li  Li4  1  0.25798473  0.77697815  0.69425920  1
  Li  Li5  1  0.25797715  0.22298568  0.69437897  1
  Li  Li6  1  0.74203379  0.77700896  0.69433563  1
  Li  Li7  1  0.74202142  0.22302630  0.69424459  1
  I  I8  1  0.00001291  0.50000282  0.56119015  1
  I  I9  1  0.50001603  0.50000032  0.84213822  1
  I  I10  1  0.50000432  0.49999384  0.34212607  1
  I  I11  1  0.49999009  -0.00000312  0.06118998  1
  Cl  Cl12  1  -0.00000831  0.00000336  0.27900560  1
  Cl  Cl13  1  0.00000541  0.50000282  0.08559091  1
  Cl  Cl14  1  0.49999831  0.00000080  0.58559187  1
  Cl  Cl15  1  -0.00000107  -0.00000293  0.77900178  1
