# generated using pymatgen
data_Na5Br3N2
_symmetry_space_group_name_H-M   'P 1'
_cell_length_a   6.59662921
_cell_length_b   6.60216596
_cell_length_c   8.71037851
_cell_angle_alpha   89.21814739
_cell_angle_beta   81.40059028
_cell_angle_gamma   141.39632612
_symmetry_Int_Tables_number   1
_chemical_formula_structural   Na5Br3N2
_chemical_formula_sum   'Na5 Br3 N2'
_cell_volume   228.73403852
_cell_formula_units_Z   1
loop_
 _symmetry_equiv_pos_site_id
 _symmetry_equiv_pos_as_xyz
  1  'x, y, z'
loop_
 _atom_site_type_symbol
 _atom_site_label
 _atom_site_symmetry_multiplicity
 _atom_site_fract_x
 _atom_site_fract_y
 _atom_site_fract_z
 _atom_site_occupancy
  Na  Na0  1  0.47418629  0.52439019  0.82984425  1
  Na  Na1  1  -0.31683871  0.26094629  0.99146489  1
  Na  Na2  1  0.37445076  -0.10385417  0.66866701  1
  Na  Na3  1  0.78213973  0.62198934  0.44133836  1
  Na  Na4  1  0.18268432  0.44303090  0.21832482  1
  Br  Br5  1  -0.10062302  -0.13325010  0.08104915  1
  Br  Br6  1  0.06923835  0.20199881  0.57834950  1
  Br  Br7  1  0.47995429  0.02992635  0.33006969  1
  N  N8  1  0.28464287  0.70516339  0.94307422  1
  N  N9  1  0.77016512  0.44965899  0.71705334  1
