# generated using pymatgen
data_LiSiCl3
_symmetry_space_group_name_H-M   'P 1'
_cell_length_a   10.24464747
_cell_length_b   7.37717876
_cell_length_c   7.18470034
_cell_angle_alpha   90.00058489
_cell_angle_beta   89.99959002
_cell_angle_gamma   89.99363296
_symmetry_Int_Tables_number   1
_chemical_formula_structural   LiSiCl3
_chemical_formula_sum   'Li4 Si4 Cl12'
_cell_volume   542.99518915
_cell_formula_units_Z   4
loop_
 _symmetry_equiv_pos_site_id
 _symmetry_equiv_pos_as_xyz
  1  'x, y, z'
loop_
 _atom_site_type_symbol
 _atom_site_label
 _atom_site_symmetry_multiplicity
 _atom_site_fract_x
 _atom_site_fract_y
 _atom_site_fract_z
 _atom_site_occupancy
  Li  Li0  1  0.45936877  0.03578114  0.38293327  1
  Li  Li1  1  0.54065611  -0.03574358  -0.11705280  1
  Li  Li2  1  0.95933613  -0.03572562  0.38295321  1
  Li  Li3  1  0.04063364  0.03578643  -0.11706003  1
  Si  Si4  1  0.63671171  0.68449008  0.38264463  1
  Si  Si5  1  0.36325412  0.31548491  0.88264659  1
  Si  Si6  1  0.13672488  0.31552592  0.38267856  1
  Si  Si7  1  0.86331118  0.68447948  0.88267874  1
  Cl  Cl8  1  0.50955827  0.24685547  0.10693937  1
  Cl  Cl9  1  0.27944525  0.03323831  0.88163127  1
  Cl  Cl10  1  0.49126213  0.75051592  0.15679519  1
  Cl  Cl11  1  0.49042750  0.75314093  0.60690472  1
  Cl  Cl12  1  0.72052345  -0.03326726  0.38161133  1
  Cl  Cl13  1  0.50875140  0.24943350  0.65681459  1
  Cl  Cl14  1  0.00956818  0.75318521  0.10688825  1
  Cl  Cl15  1  0.77949473  -0.03327195  0.88163202  1
  Cl  Cl16  1  -0.00874114  0.24942813  0.15684276  1
  Cl  Cl17  1  -0.00955204  0.24684784  0.60691898  1
  Cl  Cl18  1  0.22053148  0.03325089  0.38164513  1
  Cl  Cl19  1  0.00873427  0.75056425  0.65682682  1
