# generated using pymatgen
data_NaBrO2
_symmetry_space_group_name_H-M   'P 1'
_cell_length_a   5.84709594
_cell_length_b   6.92634844
_cell_length_c   7.42150895
_cell_angle_alpha   118.95292341
_cell_angle_beta   90.01587621
_cell_angle_gamma   89.98332712
_symmetry_Int_Tables_number   1
_chemical_formula_structural   NaBrO2
_chemical_formula_sum   'Na4 Br4 O8'
_cell_volume   262.99870551
_cell_formula_units_Z   4
loop_
 _symmetry_equiv_pos_site_id
 _symmetry_equiv_pos_as_xyz
  1  'x, y, z'
loop_
 _atom_site_type_symbol
 _atom_site_label
 _atom_site_symmetry_multiplicity
 _atom_site_fract_x
 _atom_site_fract_y
 _atom_site_fract_z
 _atom_site_occupancy
  Na  Na0  1  0.50053894  -0.08781405  0.79808636  1
  Na  Na1  1  0.00053770  0.41218614  0.79808713  1
  Na  Na2  1  0.50058398  0.41219597  0.29809476  1
  Na  Na3  1  0.00058316  -0.08780270  0.29809547  1
  Br  Br4  1  0.49990373  0.60480696  0.00750658  1
  Br  Br5  1  -0.00005095  0.60483923  0.50750788  1
  Br  Br6  1  0.49994859  0.10483905  0.50750871  1
  Br  Br7  1  -0.00009520  0.10480645  0.00750623  1
  O  O8  1  0.75827922  0.74209999  0.48269993  1
  O  O9  1  0.24133707  0.74089165  0.48050821  1
  O  O10  1  0.25827777  0.24210047  0.48270188  1
  O  O11  1  0.74133619  0.24089276  0.48050969  1
  O  O12  1  0.75819153  0.24208982  -0.01727543  1
  O  O13  1  0.24122066  0.24088883  -0.01952793  1
  O  O14  1  0.25818944  0.74208930  -0.01727554  1
  O  O15  1  0.74121818  0.74089015  -0.01952934  1
