# generated using pymatgen
data_Li4SiI
_symmetry_space_group_name_H-M   'P 1'
_cell_length_a   5.82378399
_cell_length_b   5.82378441
_cell_length_c   7.09676833
_cell_angle_alpha   90.00108326
_cell_angle_beta   90.00107568
_cell_angle_gamma   89.99995839
_symmetry_Int_Tables_number   1
_chemical_formula_structural   Li4SiI
_chemical_formula_sum   'Li8 Si2 I2'
_cell_volume   240.69727619
_cell_formula_units_Z   2
loop_
 _symmetry_equiv_pos_site_id
 _symmetry_equiv_pos_as_xyz
  1  'x, y, z'
loop_
 _atom_site_type_symbol
 _atom_site_label
 _atom_site_symmetry_multiplicity
 _atom_site_fract_x
 _atom_site_fract_y
 _atom_site_fract_z
 _atom_site_occupancy
  Li  Li0  1  0.30349079  0.80348292  0.25003399  1
  Li  Li1  1  0.19651131  0.30348774  0.24999966  1
  Li  Li2  1  0.80348834  0.69651118  0.24999962  1
  Li  Li3  1  0.69651858  0.19651092  0.24996528  1
  Li  Li4  1  0.69651143  0.19651807  0.74996614  1
  Li  Li5  1  0.80348678  0.69651292  0.75000038  1
  Li  Li6  1  0.19650970  0.30348956  0.75000033  1
  Li  Li7  1  0.30348371  0.80349014  0.75003458  1
  Si  Si8  1  -0.00000010  -0.00000094  -0.00000002  1
  Si  Si9  1  0.49999978  0.49999919  0.50000002  1
  I  I10  1  0.49999956  0.49999955  0.00000003  1
  I  I11  1  0.00000013  -0.00000123  0.49999999  1
