# generated using pymatgen
data_Na2ClO5
_symmetry_space_group_name_H-M   'P 1'
_cell_length_a   5.54920493
_cell_length_b   5.97156611
_cell_length_c   6.86908099
_cell_angle_alpha   89.96437308
_cell_angle_beta   89.97893279
_cell_angle_gamma   90.01204213
_symmetry_Int_Tables_number   1
_chemical_formula_structural   Na2ClO5
_chemical_formula_sum   'Na4 Cl2 O10'
_cell_volume   227.62372294
_cell_formula_units_Z   2
loop_
 _symmetry_equiv_pos_site_id
 _symmetry_equiv_pos_as_xyz
  1  'x, y, z'
loop_
 _atom_site_type_symbol
 _atom_site_label
 _atom_site_symmetry_multiplicity
 _atom_site_fract_x
 _atom_site_fract_y
 _atom_site_fract_z
 _atom_site_occupancy
  Na  Na0  1  0.49984643  0.04884196  0.88534528  1
  Na  Na1  1  0.49977635  0.08234652  0.40472133  1
  Na  Na2  1  0.00035706  0.58296280  0.09540501  1
  Na  Na3  1  0.00008084  0.54875911  0.61450095  1
  Cl  Cl4  1  0.50020915  0.58889094  0.32913301  1
  Cl  Cl5  1  -0.00018667  0.08921656  0.17064907  1
  O  O6  1  0.50018658  0.55360337  -0.14274039  1
  O  O7  1  -0.00023232  0.05303860  0.64306186  1
  O  O8  1  0.29478192  0.42581321  0.86332248  1
  O  O9  1  0.20516228  0.92535878  0.63686895  1
  O  O10  1  0.79436147  -0.07462256  0.63629876  1
  O  O11  1  0.70567705  0.42607462  0.86364747  1
  O  O12  1  0.73186330  0.43752141  0.35743879  1
  O  O13  1  0.23121548  0.93743548  0.14251447  1
  O  O14  1  0.76810999  -0.06225284  0.14248308  1
  O  O15  1  0.26879110  0.43701204  0.35734988  1
