# generated using pymatgen
data_Li2SiI
_symmetry_space_group_name_H-M   'P 1'
_cell_length_a   4.48298564
_cell_length_b   4.48298529
_cell_length_c   8.36941124
_cell_angle_alpha   90.00000057
_cell_angle_beta   90.00000032
_cell_angle_gamma   90.00000692
_symmetry_Int_Tables_number   1
_chemical_formula_structural   Li2SiI
_chemical_formula_sum   'Li4 Si2 I2'
_cell_volume   168.20138546
_cell_formula_units_Z   2
loop_
 _symmetry_equiv_pos_site_id
 _symmetry_equiv_pos_as_xyz
  1  'x, y, z'
loop_
 _atom_site_type_symbol
 _atom_site_label
 _atom_site_symmetry_multiplicity
 _atom_site_fract_x
 _atom_site_fract_y
 _atom_site_fract_z
 _atom_site_occupancy
  Li  Li0  1  0.00000000  0.50000000  0.25000312  1
  Li  Li1  1  0.50000000  0.00000000  0.74999688  1
  Li  Li2  1  0.00000000  0.50000000  0.74999682  1
  Li  Li3  1  0.50000000  0.00000000  0.25000328  1
  Si  Si4  1  0.50000000  0.50000000  0.49999997  1
  Si  Si5  1  -0.00000000  -0.00000000  -0.00000002  1
  I  I6  1  0.50000000  0.50000000  -0.00000003  1
  I  I7  1  -0.00000000  0.00000000  0.49999997  1
