# generated using pymatgen
data_KBr2N3
_symmetry_space_group_name_H-M   'P 1'
_cell_length_a   4.45298897
_cell_length_b   9.62577764
_cell_length_c   7.93261066
_cell_angle_alpha   90.02020317
_cell_angle_beta   90.01782621
_cell_angle_gamma   89.99999610
_symmetry_Int_Tables_number   1
_chemical_formula_structural   KBr2N3
_chemical_formula_sum   'K2 Br4 N6'
_cell_volume   340.01927395
_cell_formula_units_Z   2
loop_
 _symmetry_equiv_pos_site_id
 _symmetry_equiv_pos_as_xyz
  1  'x, y, z'
loop_
 _atom_site_type_symbol
 _atom_site_label
 _atom_site_symmetry_multiplicity
 _atom_site_fract_x
 _atom_site_fract_y
 _atom_site_fract_z
 _atom_site_occupancy
  K  K0  1  0.49971202  0.62379475  0.88506996  1
  K  K1  1  0.49971255  0.37618972  0.38476383  1
  Br  Br2  1  -0.00039463  0.59556064  0.56762029  1
  Br  Br3  1  -0.00039710  0.40426814  0.06746729  1
  Br  Br4  1  0.00009801  0.91211389  0.23941310  1
  Br  Br5  1  0.00010225  0.08825577  0.73929001  1
  N  N6  1  0.50050896  0.34149820  0.76326764  1
  N  N7  1  0.50007478  0.16673296  0.10079826  1
  N  N8  1  0.00000156  0.84505271  0.03203736  1
  N  N9  1  0.50050617  0.65869654  0.26375957  1
  N  N10  1  0.50007407  0.83322175  0.60141923  1
  N  N11  1  0.00000137  0.15461491  0.53167372  1
