# generated using pymatgen
data_K2NaCl
_symmetry_space_group_name_H-M   'P 1'
_cell_length_a   5.73083556
_cell_length_b   5.73083509
_cell_length_c   10.32036930
_cell_angle_alpha   90.00003992
_cell_angle_beta   89.99997639
_cell_angle_gamma   90.00000568
_symmetry_Int_Tables_number   1
_chemical_formula_structural   K2NaCl
_chemical_formula_sum   'K4 Na2 Cl2'
_cell_volume   338.94645547
_cell_formula_units_Z   2
loop_
 _symmetry_equiv_pos_site_id
 _symmetry_equiv_pos_as_xyz
  1  'x, y, z'
loop_
 _atom_site_type_symbol
 _atom_site_label
 _atom_site_symmetry_multiplicity
 _atom_site_fract_x
 _atom_site_fract_y
 _atom_site_fract_z
 _atom_site_occupancy
  K  K0  1  0.49999999  0.49999998  0.50000007  1
  K  K1  1  -0.00000007  -0.00000005  0.50000011  1
  K  K2  1  -0.00000004  0.50000010  0.86784853  1
  K  K3  1  0.50000008  -0.00000003  0.13215151  1
  Na  Na4  1  0.00000018  0.49999956  0.21467300  1
  Na  Na5  1  0.49999981  0.00000033  0.78532696  1
  Cl  Cl6  1  0.00000007  0.00000022  -0.00000008  1
  Cl  Cl7  1  0.49999997  0.49999989  -0.00000008  1
