# generated using pymatgen
data_Na3Br4N
_symmetry_space_group_name_H-M   'P 1'
_cell_length_a   11.42390534
_cell_length_b   5.76100209
_cell_length_c   6.22954835
_cell_angle_alpha   89.99999988
_cell_angle_beta   90.00003757
_cell_angle_gamma   89.99998970
_symmetry_Int_Tables_number   1
_chemical_formula_structural   Na3Br4N
_chemical_formula_sum   'Na6 Br8 N2'
_cell_volume   409.98615348
_cell_formula_units_Z   2
loop_
 _symmetry_equiv_pos_site_id
 _symmetry_equiv_pos_as_xyz
  1  'x, y, z'
loop_
 _atom_site_type_symbol
 _atom_site_label
 _atom_site_symmetry_multiplicity
 _atom_site_fract_x
 _atom_site_fract_y
 _atom_site_fract_z
 _atom_site_occupancy
  Na  Na0  1  0.50000001  0.50000013  -0.00000003  1
  Na  Na1  1  -0.00000001  0.00000013  -0.00000003  1
  Na  Na2  1  0.74999996  0.74999986  0.67991735  1
  Na  Na3  1  0.25000004  0.74999986  0.32008272  1
  Na  Na4  1  0.25000001  0.25000004  0.67991733  1
  Na  Na5  1  0.74999998  0.25000004  0.32008271  1
  Br  Br6  1  0.00000000  -0.00000004  0.49999997  1
  Br  Br7  1  0.50000000  0.49999997  0.49999997  1
  Br  Br8  1  0.24999980  0.24999988  0.17846273  1
  Br  Br9  1  0.74999998  0.74999996  0.17846274  1
  Br  Br10  1  0.25000002  0.74999996  0.82153728  1
  Br  Br11  1  0.00000000  0.49999997  0.50000001  1
  Br  Br12  1  0.75000020  0.24999988  0.82153727  1
  Br  Br13  1  0.50000000  -0.00000003  0.50000001  1
  N  N14  1  0.00000001  0.50000019  -0.00000001  1
  N  N15  1  0.50000000  0.00000019  -0.00000002  1
