# generated using pymatgen
data_Na3NO2
_symmetry_space_group_name_H-M   'P 1'
_cell_length_a   10.32117377
_cell_length_b   5.33131445
_cell_length_c   6.02012722
_cell_angle_alpha   90.00017255
_cell_angle_beta   89.99965794
_cell_angle_gamma   89.98666618
_symmetry_Int_Tables_number   1
_chemical_formula_structural   Na3NO2
_chemical_formula_sum   'Na12 N4 O8'
_cell_volume   331.26003655
_cell_formula_units_Z   4
loop_
 _symmetry_equiv_pos_site_id
 _symmetry_equiv_pos_as_xyz
  1  'x, y, z'
loop_
 _atom_site_type_symbol
 _atom_site_label
 _atom_site_symmetry_multiplicity
 _atom_site_fract_x
 _atom_site_fract_y
 _atom_site_fract_z
 _atom_site_occupancy
  Na  Na0  1  0.00005106  -0.00135978  0.43485942  1
  Na  Na1  1  0.18397225  0.57546875  0.45240383  1
  Na  Na2  1  0.49981625  0.50133882  0.93508030  1
  Na  Na3  1  0.31667374  0.07755407  -0.05041294  1
  Na  Na4  1  0.31634765  0.07538652  0.41853796  1
  Na  Na5  1  0.18289523  0.57758793  0.92134426  1
  Na  Na6  1  -0.00005343  0.00136664  0.93486586  1
  Na  Na7  1  0.81602561  0.42452700  -0.04756243  1
  Na  Na8  1  0.50018676  0.49867111  0.43508102  1
  Na  Na9  1  0.68332124  0.92245631  0.44960319  1
  Na  Na10  1  0.81710921  0.42240659  0.42135290  1
  Na  Na11  1  0.68364005  0.92461179  0.91856237  1
  N  N12  1  0.04413396  0.36072392  0.18736544  1
  N  N13  1  0.45608645  0.86135669  0.68385915  1
  N  N14  1  0.54391997  0.13865652  0.18385796  1
  N  N15  1  0.95587576  0.63925959  0.68738060  1
  O  O16  1  0.82370618  0.06659745  0.18513904  1
  O  O17  1  0.67624109  0.56652631  0.68522763  1
  O  O18  1  0.49326864  0.09424494  0.68428855  1
  O  O19  1  0.00668290  0.59348099  0.18766688  1
  O  O20  1  0.17629948  -0.06661173  0.68515683  1
  O  O21  1  0.32375232  0.43348766  0.18525441  1
  O  O22  1  0.99331957  0.40648436  0.68767069  1
  O  O23  1  0.50672806  -0.09422247  0.18428215  1
