# generated using pymatgen
data_Na2BI4
_symmetry_space_group_name_H-M   'P 1'
_cell_length_a   8.03873933
_cell_length_b   9.28511829
_cell_length_c   4.48101884
_cell_angle_alpha   101.92507360
_cell_angle_beta   75.90641692
_cell_angle_gamma   117.30997034
_symmetry_Int_Tables_number   1
_chemical_formula_structural   Na2BI4
_chemical_formula_sum   'Na2 B1 I4'
_cell_volume   286.48681136
_cell_formula_units_Z   1
loop_
 _symmetry_equiv_pos_site_id
 _symmetry_equiv_pos_as_xyz
  1  'x, y, z'
loop_
 _atom_site_type_symbol
 _atom_site_label
 _atom_site_symmetry_multiplicity
 _atom_site_fract_x
 _atom_site_fract_y
 _atom_site_fract_z
 _atom_site_occupancy
  Na  Na0  1  0.64750844  0.17232318  -0.04094033  1
  Na  Na1  1  0.33569648  0.65358324  -0.12823190  1
  B  B2  1  0.11000749  0.25652224  0.29723537  1
  I  I3  1  0.04767734  0.13896606  0.77475448  1
  I  I4  1  -0.03543212  0.43606277  0.43840738  1
  I  I5  1  0.43660212  0.42417545  0.22605629  1
  I  I6  1  0.45794025  -0.08163295  0.43271871  1
