# generated using pymatgen
data_Na2Li3I2
_symmetry_space_group_name_H-M   'P 1'
_cell_length_a   4.08191390
_cell_length_b   4.08191337
_cell_length_c   12.81899079
_cell_angle_alpha   90.00000237
_cell_angle_beta   90.00000130
_cell_angle_gamma   90.00000249
_symmetry_Int_Tables_number   1
_chemical_formula_structural   Na2Li3I2
_chemical_formula_sum   'Na2 Li3 I2'
_cell_volume   213.59026709
_cell_formula_units_Z   1
loop_
 _symmetry_equiv_pos_site_id
 _symmetry_equiv_pos_as_xyz
  1  'x, y, z'
loop_
 _atom_site_type_symbol
 _atom_site_label
 _atom_site_symmetry_multiplicity
 _atom_site_fract_x
 _atom_site_fract_y
 _atom_site_fract_z
 _atom_site_occupancy
  Na  Na0  1  0.49999999  0.50000000  0.14041507  1
  Na  Na1  1  0.50000004  0.50000005  0.62789756  1
  Li  Li2  1  0.49999970  0.49999986  0.88016997  1
  Li  Li3  1  0.50000002  0.00000001  0.34007557  1
  Li  Li4  1  0.00000002  0.50000000  0.34007556  1
  I  I5  1  0.00000020  0.00000007  -0.03285212  1
  I  I6  1  0.00000003  0.00000002  0.48888337  1
