# generated using pymatgen
data_Li6CI2
_symmetry_space_group_name_H-M   'P 1'
_cell_length_a   7.34513345
_cell_length_b   7.34494434
_cell_length_c   11.69039651
_cell_angle_alpha   90.00390815
_cell_angle_beta   90.00835188
_cell_angle_gamma   120.00376636
_symmetry_Int_Tables_number   1
_chemical_formula_structural   Li6CI2
_chemical_formula_sum   'Li18 C3 I6'
_cell_volume   546.17470029
_cell_formula_units_Z   3
loop_
 _symmetry_equiv_pos_site_id
 _symmetry_equiv_pos_as_xyz
  1  'x, y, z'
loop_
 _atom_site_type_symbol
 _atom_site_label
 _atom_site_symmetry_multiplicity
 _atom_site_fract_x
 _atom_site_fract_y
 _atom_site_fract_z
 _atom_site_occupancy
  Li  Li0  1  0.75189815  0.77597759  0.08678916  1
  Li  Li1  1  0.24810371  0.22402299  0.91321154  1
  Li  Li2  1  -0.02410801  0.75185934  0.91318731  1
  Li  Li3  1  0.02410872  0.24814042  0.08681295  1
  Li  Li4  1  0.77596577  0.02409812  0.91319006  1
  Li  Li5  1  0.22403765  -0.02409862  0.08680957  1
  Li  Li6  1  0.41856379  0.10931090  0.42012221  1
  Li  Li7  1  -0.08523105  0.55735649  0.24654431  1
  Li  Li8  1  0.69077377  0.58147367  0.42014570  1
  Li  Li9  1  0.64255845  0.08519257  0.24652076  1
  Li  Li10  1  -0.10929767  0.30923582  0.42014285  1
  Li  Li11  1  0.44262965  0.35743106  0.24652309  1
  Li  Li12  1  0.58143574  -0.10931064  0.57987768  1
  Li  Li13  1  0.08523043  0.44264420  0.75345583  1
  Li  Li14  1  0.30922400  0.41852591  0.57985389  1
  Li  Li15  1  0.35744203  -0.08519238  0.75347966  1
  Li  Li16  1  0.10929675  0.69076509  0.57985711  1
  Li  Li17  1  0.55736877  0.64256817  0.75347634  1
  C  C18  1  0.00000135  -0.00000004  0.00000041  1
  C  C19  1  0.66666594  0.33333338  0.33333295  1
  C  C20  1  0.33333286  0.66666681  0.66666667  1
  I  I21  1  0.33332797  0.66666486  0.00005807  1
  I  I22  1  0.66667616  0.33333402  -0.00005905  1
  I  I23  1  -0.00000929  -0.00000132  0.33339225  1
  I  I24  1  0.33333922  0.66666774  0.33327535  1
  I  I25  1  0.00000669  0.00000148  0.66660945  1
  I  I26  1  0.66665846  0.33333234  0.66672387  1
