# generated using pymatgen
data_Na(S3I)2
_symmetry_space_group_name_H-M   'P 1'
_cell_length_a   10.57536270
_cell_length_b   10.57654366
_cell_length_c   10.57669270
_cell_angle_alpha   90.00304547
_cell_angle_beta   89.99409270
_cell_angle_gamma   89.99849087
_symmetry_Int_Tables_number   1
_chemical_formula_structural   Na(S3I)2
_chemical_formula_sum   'Na4 S24 I8'
_cell_volume   1183.01137561
_cell_formula_units_Z   4
loop_
 _symmetry_equiv_pos_site_id
 _symmetry_equiv_pos_as_xyz
  1  'x, y, z'
loop_
 _atom_site_type_symbol
 _atom_site_label
 _atom_site_symmetry_multiplicity
 _atom_site_fract_x
 _atom_site_fract_y
 _atom_site_fract_z
 _atom_site_occupancy
  Na  Na0  1  -0.00000025  -0.00000009  0.00000019  1
  Na  Na1  1  0.49999982  -0.00000042  0.50000045  1
  Na  Na2  1  0.49999975  0.49999993  0.00000031  1
  Na  Na3  1  0.00000004  0.49999978  0.50000018  1
  S  S4  1  0.37625735  0.87039574  0.05337400  1
  S  S5  1  0.12962327  0.94663564  0.62372819  1
  S  S6  1  0.05336525  0.37623863  0.87038889  1
  S  S7  1  0.87037703  0.05336470  0.37627202  1
  S  S8  1  0.62374270  0.12960441  0.94662651  1
  S  S9  1  0.94663285  0.62376061  0.12961034  1
  S  S10  1  0.37038327  0.05336719  0.12374447  1
  S  S11  1  0.62961665  0.94663278  0.87625562  1
  S  S12  1  0.44663518  0.62375810  0.37040329  1
  S  S13  1  0.55336524  0.37624213  0.62959649  1
  S  S14  1  0.87621271  0.87039844  0.44665413  1
  S  S15  1  0.12378756  0.12960164  0.55334590  1
  S  S16  1  0.12379446  0.37039854  0.05334448  1
  S  S17  1  0.87620461  0.62960206  0.94665701  1
  S  S18  1  0.37038366  0.44665301  0.62376272  1
  S  S19  1  0.62961662  0.55334688  0.37623726  1
  S  S20  1  0.44664467  0.87624532  0.87040280  1
  S  S21  1  0.55335572  0.12375441  0.12959741  1
  S  S22  1  0.05336265  0.12373540  0.37038723  1
  S  S23  1  0.94663715  0.87626480  0.62961269  1
  S  S24  1  0.62373971  0.37038179  0.44661117  1
  S  S25  1  0.37626025  0.62961809  0.55338875  1
  S  S26  1  0.87037910  0.44662211  0.87629160  1
  S  S27  1  0.12962106  0.55337624  0.12370897  1
  I  I28  1  0.31086948  0.31098548  0.31095099  1
  I  I29  1  0.68913020  0.68901692  0.68904722  1
  I  I30  1  0.18905098  0.81091213  0.31096859  1
  I  I31  1  0.81095053  0.18908897  0.68903162  1
  I  I32  1  0.31090039  0.18904937  0.81090438  1
  I  I33  1  0.68910051  0.81095020  0.18909423  1
  I  I34  1  0.18902173  0.68909448  0.81094850  1
  I  I35  1  0.81097806  0.31090458  0.18905141  1
