# generated using pymatgen
data_LiIN4
_symmetry_space_group_name_H-M   'P 1'
_cell_length_a   9.11781610
_cell_length_b   6.37366397
_cell_length_c   7.54385346
_cell_angle_alpha   90.00101701
_cell_angle_beta   90.00248740
_cell_angle_gamma   90.00400758
_symmetry_Int_Tables_number   1
_chemical_formula_structural   LiIN4
_chemical_formula_sum   'Li4 I4 N16'
_cell_volume   438.40271370
_cell_formula_units_Z   4
loop_
 _symmetry_equiv_pos_site_id
 _symmetry_equiv_pos_as_xyz
  1  'x, y, z'
loop_
 _atom_site_type_symbol
 _atom_site_label
 _atom_site_symmetry_multiplicity
 _atom_site_fract_x
 _atom_site_fract_y
 _atom_site_fract_z
 _atom_site_occupancy
  Li  Li0  1  0.55875926  0.36617910  -0.08208533  1
  Li  Li1  1  0.94123230  0.63384585  0.41787870  1
  Li  Li2  1  0.05876658  0.13384693  0.08208901  1
  Li  Li3  1  0.44123725  0.86612934  0.58209961  1
  I  I4  1  0.77123128  -0.00791251  0.76337652  1
  I  I5  1  0.72877098  0.00790349  0.26337650  1
  I  I6  1  0.22876363  0.49208018  0.73662113  1
  I  I7  1  0.27122659  0.50792041  0.23662479  1
  N  N8  1  0.14196925  0.00608143  0.43681416  1
  N  N9  1  0.22105738  -0.13029006  0.50433055  1
  N  N10  1  0.65319021  0.83479092  0.51010470  1
  N  N11  1  0.35802664  0.99392095  0.93681067  1
  N  N12  1  0.27893932  0.13028889  0.00432423  1
  N  N13  1  0.84680878  0.16520240  0.01011373  1
  N  N14  1  0.43050140  0.87013534  0.86503818  1
  N  N15  1  0.06949478  0.12986764  0.36503570  1
  N  N16  1  -0.14196015  0.50609743  0.06317949  1
  N  N17  1  0.77894613  0.36971337  -0.00431279  1
  N  N18  1  0.34680327  0.33481296  0.98989451  1
  N  N19  1  0.64196848  0.49390103  0.56319947  1
  N  N20  1  0.72106424  0.63029289  0.49567349  1
  N  N21  1  0.15318798  0.66518953  0.48989002  1
  N  N22  1  0.56949584  0.37009762  0.63498384  1
  N  N23  1  0.93051858  0.62990486  0.13493913  1
