# generated using pymatgen
data_Na3SiCl8
_symmetry_space_group_name_H-M   'P 1'
_cell_length_a   12.92299948
_cell_length_b   11.79102763
_cell_length_c   4.95627782
_cell_angle_alpha   102.06990846
_cell_angle_beta   89.14556722
_cell_angle_gamma   89.88894728
_symmetry_Int_Tables_number   1
_chemical_formula_structural   Na3SiCl8
_chemical_formula_sum   'Na6 Si2 Cl16'
_cell_volume   738.42764784
_cell_formula_units_Z   2
loop_
 _symmetry_equiv_pos_site_id
 _symmetry_equiv_pos_as_xyz
  1  'x, y, z'
loop_
 _atom_site_type_symbol
 _atom_site_label
 _atom_site_symmetry_multiplicity
 _atom_site_fract_x
 _atom_site_fract_y
 _atom_site_fract_z
 _atom_site_occupancy
  Na  Na0  1  0.22482091  0.26832701  0.44419067  1
  Na  Na1  1  0.74902204  0.70726470  0.66087479  1
  Na  Na2  1  0.56263230  -0.03157873  0.31244204  1
  Na  Na3  1  0.72343159  0.23106694  -0.06489548  1
  Na  Na4  1  0.24165124  0.79292916  0.68164282  1
  Na  Na5  1  0.05979229  0.53166108  0.08736537  1
  Si  Si6  1  0.49898564  0.48551680  0.32723352  1
  Si  Si7  1  0.00030914  0.01574571  0.55971520  1
  Cl  Cl8  1  0.49183257  0.33649633  0.03426234  1
  Cl  Cl9  1  0.87036666  0.00309399  -0.21187502  1
  Cl  Cl10  1  0.50621202  0.62961212  0.16685228  1
  Cl  Cl11  1  0.13131872  0.02447894  -0.21151061  1
  Cl  Cl12  1  0.68286843  0.15941392  -0.59866356  1
  Cl  Cl13  1  0.60649894  0.86983442  -0.23606077  1
  Cl  Cl14  1  0.31547505  0.85620123  0.20950241  1
  Cl  Cl15  1  0.36528448  0.07796365  0.31295071  1
  Cl  Cl16  1  0.36898042  0.49684295  0.56861348  1
  Cl  Cl17  1  0.63038050  0.47753684  -0.45294637  1
  Cl  Cl18  1  -0.00774184  0.16501711  -0.58371568  1
  Cl  Cl19  1  0.00975005  0.87187482  0.25452676  1
  Cl  Cl20  1  0.81943896  0.64010480  0.12308727  1
  Cl  Cl21  1  0.09922157  0.63161050  0.63757654  1
  Cl  Cl22  1  0.18393230  0.34179526  -0.01695062  1
  Cl  Cl23  1  0.86553598  0.41719043  -0.00421810  1
