# generated using pymatgen
data_Na2PI
_symmetry_space_group_name_H-M   'P 1'
_cell_length_a   5.36925390
_cell_length_b   5.36925074
_cell_length_c   7.46974069
_cell_angle_alpha   90.00000020
_cell_angle_beta   90.00000045
_cell_angle_gamma   89.99998999
_symmetry_Int_Tables_number   1
_chemical_formula_structural   Na2PI
_chemical_formula_sum   'Na4 P2 I2'
_cell_volume   215.34418677
_cell_formula_units_Z   2
loop_
 _symmetry_equiv_pos_site_id
 _symmetry_equiv_pos_as_xyz
  1  'x, y, z'
loop_
 _atom_site_type_symbol
 _atom_site_label
 _atom_site_symmetry_multiplicity
 _atom_site_fract_x
 _atom_site_fract_y
 _atom_site_fract_z
 _atom_site_occupancy
  Na  Na0  1  -0.00000000  0.50000000  0.68227269  1
  Na  Na1  1  0.50000000  -0.00000000  0.68018840  1
  Na  Na2  1  0.50000000  -0.00000000  0.18227668  1
  Na  Na3  1  -0.00000000  0.50000000  0.18019072  1
  P  P4  1  -0.00000000  -0.00000000  0.43136503  1
  P  P5  1  0.00000000  -0.00000000  0.93142285  1
  I  I6  1  0.50000000  0.50000000  0.93181938  1
  I  I7  1  0.50000000  0.50000000  0.43181902  1
