# generated using pymatgen
data_K2IO3
_symmetry_space_group_name_H-M   'P 1'
_cell_length_a   7.05334431
_cell_length_b   4.82703737
_cell_length_c   4.11973567
_cell_angle_alpha   90.07914998
_cell_angle_beta   89.97189613
_cell_angle_gamma   110.76132117
_symmetry_Int_Tables_number   1
_chemical_formula_structural   K2IO3
_chemical_formula_sum   'K2 I1 O3'
_cell_volume   131.15551920
_cell_formula_units_Z   1
loop_
 _symmetry_equiv_pos_site_id
 _symmetry_equiv_pos_as_xyz
  1  'x, y, z'
loop_
 _atom_site_type_symbol
 _atom_site_label
 _atom_site_symmetry_multiplicity
 _atom_site_fract_x
 _atom_site_fract_y
 _atom_site_fract_z
 _atom_site_occupancy
  K  K0  1  0.30258097  0.63824540  0.54674011  1
  K  K1  1  0.73644739  0.36188097  0.54556999  1
  I  I2  1  -0.03190090  -0.03157782  0.04496223  1
  O  O3  1  0.02352857  0.59187347  0.04713946  1
  O  O4  1  0.49149383  0.08245023  0.04551652  1
  O  O5  1  0.47785013  0.35712775  0.04575998  1
