# generated using pymatgen
data_KBrCl
_symmetry_space_group_name_H-M   'P 1'
_cell_length_a   5.19036043
_cell_length_b   5.19035984
_cell_length_c   8.47280967
_cell_angle_alpha   90.00000494
_cell_angle_beta   90.00000183
_cell_angle_gamma   119.99770752
_symmetry_Int_Tables_number   1
_chemical_formula_structural   KBrCl
_chemical_formula_sum   'K2 Br2 Cl2'
_cell_volume   197.68016712
_cell_formula_units_Z   2
loop_
 _symmetry_equiv_pos_site_id
 _symmetry_equiv_pos_as_xyz
  1  'x, y, z'
loop_
 _atom_site_type_symbol
 _atom_site_label
 _atom_site_symmetry_multiplicity
 _atom_site_fract_x
 _atom_site_fract_y
 _atom_site_fract_z
 _atom_site_occupancy
  K  K0  1  -0.00000001  -0.00000001  0.71567853  1
  K  K1  1  0.00000000  0.00000001  0.28432147  1
  Br  Br2  1  0.66668637  0.33331389  -0.00000000  1
  Br  Br3  1  0.33331363  0.66668611  0.00000000  1
  Cl  Cl4  1  0.66666945  0.33333057  0.50000000  1
  Cl  Cl5  1  0.33333055  0.66666943  0.50000000  1
