# generated using pymatgen
data_Na3Br6Cl
_symmetry_space_group_name_H-M   'P 1'
_cell_length_a   11.17684470
_cell_length_b   11.17682327
_cell_length_c   11.17685400
_cell_angle_alpha   90.00000194
_cell_angle_beta   89.99998833
_cell_angle_gamma   90.00000392
_symmetry_Int_Tables_number   1
_chemical_formula_structural   Na3Br6Cl
_chemical_formula_sum   'Na12 Br24 Cl4'
_cell_volume   1396.23068561
_cell_formula_units_Z   4
loop_
 _symmetry_equiv_pos_site_id
 _symmetry_equiv_pos_as_xyz
  1  'x, y, z'
loop_
 _atom_site_type_symbol
 _atom_site_label
 _atom_site_symmetry_multiplicity
 _atom_site_fract_x
 _atom_site_fract_y
 _atom_site_fract_z
 _atom_site_occupancy
  Na  Na0  1  -0.00000000  0.00000000  0.50000001  1
  Na  Na1  1  0.50000000  0.00000001  0.00000000  1
  Na  Na2  1  0.50000001  0.49999997  0.49999999  1
  Na  Na3  1  -0.00000000  0.50000002  0.00000000  1
  Na  Na4  1  0.25000041  0.25000025  0.25000021  1
  Na  Na5  1  0.25000021  0.24999985  0.74999979  1
  Na  Na6  1  0.74999979  0.25000015  0.74999993  1
  Na  Na7  1  0.74999959  0.25000009  0.25000007  1
  Na  Na8  1  0.24999973  0.75000014  0.75000010  1
  Na  Na9  1  0.75000015  0.74999991  0.24999975  1
  Na  Na10  1  0.24999985  0.74999975  0.24999990  1
  Na  Na11  1  0.75000028  0.74999985  0.75000025  1
  Br  Br12  1  0.00000001  0.74999981  0.25000041  1
  Br  Br13  1  0.24999999  -0.00000003  0.75000010  1
  Br  Br14  1  0.75000021  0.24999980  0.00000003  1
  Br  Br15  1  0.24999958  0.50000002  0.25000042  1
  Br  Br16  1  0.49999995  0.75000007  0.74999982  1
  Br  Br17  1  0.75000035  0.49999998  0.74999946  1
  Br  Br18  1  -0.00000000  0.25000028  0.74999973  1
  Br  Br19  1  0.25000002  0.75000020  -0.00000001  1
  Br  Br20  1  0.75000008  0.00000003  0.25000002  1
  Br  Br21  1  0.50000004  0.24999986  0.25000003  1
  Br  Br22  1  0.75000021  0.74999967  0.49999998  1
  Br  Br23  1  0.24999955  0.25000032  0.49999999  1
  Br  Br24  1  0.24999980  0.74999964  0.50000001  1
  Br  Br25  1  0.75000041  0.49999996  0.25000053  1
  Br  Br26  1  0.50000001  0.24999992  0.74999996  1
  Br  Br27  1  0.75000001  0.00000003  0.74999999  1
  Br  Br28  1  0.24999992  -0.00000002  0.24999991  1
  Br  Br29  1  0.49999998  0.75000012  0.25000017  1
  Br  Br30  1  0.24999965  0.50000003  0.74999957  1
  Br  Br31  1  0.74999999  0.75000023  0.00000002  1
  Br  Br32  1  0.24999977  0.24999983  0.00000000  1
  Br  Br33  1  -0.00000003  0.25000021  0.25000028  1
  Br  Br34  1  0.00000005  0.74999975  0.74999960  1
  Br  Br35  1  0.75000046  0.25000030  0.49999997  1
  Cl  Cl36  1  0.00000010  0.00000028  0.00000011  1
  Cl  Cl37  1  0.50000008  -0.00000029  0.49999999  1
  Cl  Cl38  1  0.49999987  0.50000009  -0.00000009  1
  Cl  Cl39  1  -0.00000005  0.49999992  0.49999997  1
