# generated using pymatgen
data_Na5Br7O4
_symmetry_space_group_name_H-M   'P 1'
_cell_length_a   8.88405270
_cell_length_b   8.88414250
_cell_length_c   10.08856832
_cell_angle_alpha   89.99790957
_cell_angle_beta   89.99697095
_cell_angle_gamma   90.00060264
_symmetry_Int_Tables_number   1
_chemical_formula_structural   Na5Br7O4
_chemical_formula_sum   'Na10 Br14 O8'
_cell_volume   796.26234892
_cell_formula_units_Z   2
loop_
 _symmetry_equiv_pos_site_id
 _symmetry_equiv_pos_as_xyz
  1  'x, y, z'
loop_
 _atom_site_type_symbol
 _atom_site_label
 _atom_site_symmetry_multiplicity
 _atom_site_fract_x
 _atom_site_fract_y
 _atom_site_fract_z
 _atom_site_occupancy
  Na  Na0  1  0.00000288  0.50001677  0.96489654  1
  Na  Na1  1  0.32042078  0.48129688  0.22551181  1
  Na  Na2  1  0.01869013  0.82043897  0.22552028  1
  Na  Na3  1  -0.01871659  0.17956128  0.22549138  1
  Na  Na4  1  0.67955791  0.51871957  0.22552008  1
  Na  Na5  1  0.49999930  -0.00001357  0.03447312  1
  Na  Na6  1  0.48154135  0.67957320  0.77507508  1
  Na  Na7  1  0.17958211  0.01847584  0.77508137  1
  Na  Na8  1  0.82043758  -0.01849295  0.77506657  1
  Na  Na9  1  0.51849332  0.32042183  0.77509748  1
  Br  Br10  1  0.67147115  0.19182050  0.34985286  1
  Br  Br11  1  0.30818361  0.17149832  0.34985054  1
  Br  Br12  1  0.32848793  0.80820838  0.34983589  1
  Br  Br13  1  0.69177401  0.82851350  0.34983467  1
  Br  Br14  1  0.82867705  0.30814206  0.65012041  1
  Br  Br15  1  0.19186026  0.32865354  0.65012499  1
  Br  Br16  1  0.17136516  0.69182844  0.65013968  1
  Br  Br17  1  0.80816159  0.67131538  0.65013954  1
  Br  Br18  1  0.25146617  0.25112702  -0.00024213  1
  Br  Br19  1  0.74853141  0.74887431  -0.00024599  1
  Br  Br20  1  0.24887396  0.75146635  -0.00024297  1
  Br  Br21  1  -0.00001558  0.49999647  0.26082013  1
  Br  Br22  1  0.75112558  0.24853583  -0.00024428  1
  Br  Br23  1  0.50001030  0.00000123  0.73837765  1
  O  O24  1  0.52106562  0.33278536  0.32958872  1
  O  O25  1  0.16719424  0.02108893  0.32956676  1
  O  O26  1  0.83277434  -0.02105385  0.32957597  1
  O  O27  1  0.47890766  0.66720633  0.32957503  1
  O  O28  1  -0.02079444  0.16725207  0.67045109  1
  O  O29  1  0.33276920  0.47918943  0.67047020  1
  O  O30  1  0.66728098  0.52079736  0.67045307  1
  O  O31  1  0.02082106  0.83275521  0.67046444  1
