# generated using pymatgen
data_Li3I2O
_symmetry_space_group_name_H-M   'P 1'
_cell_length_a   6.92552176
_cell_length_b   10.57480699
_cell_length_c   7.76677188
_cell_angle_alpha   89.99136656
_cell_angle_beta   90.00312777
_cell_angle_gamma   89.99728928
_symmetry_Int_Tables_number   1
_chemical_formula_structural   Li3I2O
_chemical_formula_sum   'Li12 I8 O4'
_cell_volume   568.80773124
_cell_formula_units_Z   4
loop_
 _symmetry_equiv_pos_site_id
 _symmetry_equiv_pos_as_xyz
  1  'x, y, z'
loop_
 _atom_site_type_symbol
 _atom_site_label
 _atom_site_symmetry_multiplicity
 _atom_site_fract_x
 _atom_site_fract_y
 _atom_site_fract_z
 _atom_site_occupancy
  Li  Li0  1  0.76139352  -0.02706463  -0.02293226  1
  Li  Li1  1  0.37635185  0.13930694  0.00124302  1
  Li  Li2  1  0.36254597  0.86864032  0.87786247  1
  Li  Li3  1  0.26162216  0.52706694  -0.02290434  1
  Li  Li4  1  0.87627585  0.36061502  0.00126544  1
  Li  Li5  1  0.86244404  0.63142644  0.87783372  1
  Li  Li6  1  0.23843551  0.02710214  0.47713046  1
  Li  Li7  1  0.62370885  0.86055632  0.50119920  1
  Li  Li8  1  0.63756433  0.13145047  0.37790454  1
  Li  Li9  1  0.73829550  0.47292658  0.47710527  1
  Li  Li10  1  0.12376828  0.63945849  0.50123137  1
  Li  Li11  1  0.13762769  0.36852901  0.37786140  1
  I  I12  1  0.77005747  0.74629684  0.19636996  1
  I  I13  1  0.50340269  0.36393513  0.19620311  1
  I  I14  1  0.27004395  0.75372969  0.19638855  1
  I  I15  1  0.00340824  0.13605731  0.19620795  1
  I  I16  1  0.22996653  0.25370578  0.69643772  1
  I  I17  1  0.49659819  0.63605342  0.69616706  1
  I  I18  1  0.72997338  0.24627154  0.69644756  1
  I  I19  1  0.99657454  0.86394010  0.69615616  1
  O  O20  1  0.50776752  0.99836635  0.95039318  1
  O  O21  1  0.00776311  0.50160314  0.95040258  1
  O  O22  1  0.49218761  0.00163058  0.45040471  1
  O  O23  1  -0.00777680  0.49839609  0.45037684  1
