# generated using pymatgen
data_NaBI4
_symmetry_space_group_name_H-M   'P 1'
_cell_length_a   6.53546594
_cell_length_b   6.53546863
_cell_length_c   6.22817515
_cell_angle_alpha   90.00001604
_cell_angle_beta   90.00001624
_cell_angle_gamma   120.01613933
_symmetry_Int_Tables_number   1
_chemical_formula_structural   NaBI4
_chemical_formula_sum   'Na1 B1 I4'
_cell_volume   230.34250565
_cell_formula_units_Z   1
loop_
 _symmetry_equiv_pos_site_id
 _symmetry_equiv_pos_as_xyz
  1  'x, y, z'
loop_
 _atom_site_type_symbol
 _atom_site_label
 _atom_site_symmetry_multiplicity
 _atom_site_fract_x
 _atom_site_fract_y
 _atom_site_fract_z
 _atom_site_occupancy
  Na  Na0  1  -0.00000000  -0.00000000  -0.00000000  1
  B  B1  1  0.00000001  0.00000001  0.49999999  1
  I  I2  1  0.33334391  0.66665610  0.75024397  1
  I  I3  1  0.66665606  0.33334386  0.75024394  1
  I  I4  1  0.66665608  0.33334389  0.24975607  1
  I  I5  1  0.33334394  0.66665613  0.24975604  1
