# generated using pymatgen
data_LiPBr2
_symmetry_space_group_name_H-M   'P 1'
_cell_length_a   5.83231730
_cell_length_b   5.83231768
_cell_length_c   10.05793545
_cell_angle_alpha   89.99702275
_cell_angle_beta   90.00297910
_cell_angle_gamma   120.00873779
_symmetry_Int_Tables_number   1
_chemical_formula_structural   LiPBr2
_chemical_formula_sum   'Li3 P3 Br6'
_cell_volume   296.26718064
_cell_formula_units_Z   3
loop_
 _symmetry_equiv_pos_site_id
 _symmetry_equiv_pos_as_xyz
  1  'x, y, z'
loop_
 _atom_site_type_symbol
 _atom_site_label
 _atom_site_symmetry_multiplicity
 _atom_site_fract_x
 _atom_site_fract_y
 _atom_site_fract_z
 _atom_site_occupancy
  Li  Li0  1  -0.00000000  0.00000000  0.00000367  1
  Li  Li1  1  0.66666667  0.33333334  0.33333675  1
  Li  Li2  1  0.33333333  0.66666667  0.66665968  1
  P  P3  1  0.33333334  0.66666666  0.16666239  1
  P  P4  1  0.00000001  -0.00000001  0.50000185  1
  P  P5  1  0.66666666  0.33333334  0.83333565  1
  Br  Br6  1  0.00000385  -0.00000383  0.25631702  1
  Br  Br7  1  0.66666283  0.33333715  0.07701443  1
  Br  Br8  1  0.66667051  0.33332951  0.58965260  1
  Br  Br9  1  0.33332948  0.66667049  0.41034812  1
  Br  Br10  1  -0.00000385  0.00000383  0.74368438  1
  Br  Br11  1  0.33333718  0.66666285  0.92298346  1
