# generated using pymatgen
data_NaN2O5
_symmetry_space_group_name_H-M   'P 1'
_cell_length_a   8.00003200
_cell_length_b   8.00157202
_cell_length_c   7.29676999
_cell_angle_alpha   89.61362551
_cell_angle_beta   90.77826479
_cell_angle_gamma   92.92223050
_symmetry_Int_Tables_number   1
_chemical_formula_structural   NaN2O5
_chemical_formula_sum   'Na4 N8 O20'
_cell_volume   466.42794100
_cell_formula_units_Z   4
loop_
 _symmetry_equiv_pos_site_id
 _symmetry_equiv_pos_as_xyz
  1  'x, y, z'
loop_
 _atom_site_type_symbol
 _atom_site_label
 _atom_site_symmetry_multiplicity
 _atom_site_fract_x
 _atom_site_fract_y
 _atom_site_fract_z
 _atom_site_occupancy
  Na  Na0  1  0.13270069  0.44077251  0.75233740  1
  Na  Na1  1  0.13711830  0.44746484  0.24709715  1
  Na  Na2  1  0.34575503  -0.06446894  0.26484371  1
  Na  Na3  1  0.40318196  -0.03532448  0.79866562  1
  N  N4  1  0.87246821  0.54096739  0.45490350  1
  N  N5  1  0.08303751  0.74948969  -0.04463772  1
  N  N6  1  0.31221690  0.62902120  0.54617378  1
  N  N7  1  0.85228800  0.20678170  0.03866786  1
  N  N8  1  0.64569638  0.68074972  -0.07720180  1
  N  N9  1  0.73728352  0.95898341  0.52897960  1
  N  N10  1  0.13714374  0.11715448  0.48337674  1
  N  N11  1  0.37496929  0.28789854  0.04195634  1
  O  O12  1  0.57465541  0.43987525  0.42385107  1
  O  O13  1  0.68856179  0.53922842  0.94968074  1
  O  O14  1  0.41012085  0.71726714  0.64353058  1
  O  O15  1  0.83410630  0.46831745  0.58414922  1
  O  O16  1  0.46598613  0.21025699  0.93809475  1
  O  O17  1  0.32397147  0.43028048  -0.00479793  1
  O  O18  1  0.66456259  0.53306862  0.32308651  1
  O  O19  1  0.32939141  0.22524872  0.19467912  1
  O  O20  1  0.56496935  0.77540300  0.01206634  1
  O  O21  1  0.29456521  0.66597764  0.37967775  1
  O  O22  1  0.18255749  -0.12608020  -0.00541746  1
  O  O23  1  0.70480891  0.99941977  0.68553305  1
  O  O24  1  0.96490682  0.24842631  0.93021680  1
  O  O25  1  0.27359877  0.07209759  0.55473592  1
  O  O26  1  0.04175272  0.72239831  0.78972667  1
  O  O27  1  0.08909277  0.26272183  0.51460463  1
  O  O28  1  0.05505034  0.02120351  0.37810983  1
  O  O29  1  0.02526339  0.65505918  0.08038459  1
  O  O30  1  0.64675485  0.91083366  0.40381429  1
  O  O31  1  0.83146392  0.26950626  0.18911134  1
