# generated using pymatgen
data_NaICl2
_symmetry_space_group_name_H-M   'P 1'
_cell_length_a   3.94280383
_cell_length_b   3.94280388
_cell_length_c   8.35366004
_cell_angle_alpha   90.00002334
_cell_angle_beta   90.00002715
_cell_angle_gamma   120.02011635
_symmetry_Int_Tables_number   1
_chemical_formula_structural   NaICl2
_chemical_formula_sum   'Na1 I1 Cl2'
_cell_volume   112.44229579
_cell_formula_units_Z   1
loop_
 _symmetry_equiv_pos_site_id
 _symmetry_equiv_pos_as_xyz
  1  'x, y, z'
loop_
 _atom_site_type_symbol
 _atom_site_label
 _atom_site_symmetry_multiplicity
 _atom_site_fract_x
 _atom_site_fract_y
 _atom_site_fract_z
 _atom_site_occupancy
  Na  Na0  1  0.66662120  0.33337880  0.00000000  1
  I  I1  1  0.66666780  0.33333221  0.50000000  1
  Cl  Cl2  1  0.00002190  -0.00002245  0.79846304  1
  Cl  Cl3  1  0.00002243  -0.00002190  0.20153696  1
