# generated using pymatgen
data_Li2PCl4
_symmetry_space_group_name_H-M   'P 1'
_cell_length_a   6.30026401
_cell_length_b   6.13558360
_cell_length_c   8.77696591
_cell_angle_alpha   85.55682813
_cell_angle_beta   90.03200664
_cell_angle_gamma   89.37588672
_symmetry_Int_Tables_number   1
_chemical_formula_structural   Li2PCl4
_chemical_formula_sum   'Li4 P2 Cl8'
_cell_volume   338.24055345
_cell_formula_units_Z   2
loop_
 _symmetry_equiv_pos_site_id
 _symmetry_equiv_pos_as_xyz
  1  'x, y, z'
loop_
 _atom_site_type_symbol
 _atom_site_label
 _atom_site_symmetry_multiplicity
 _atom_site_fract_x
 _atom_site_fract_y
 _atom_site_fract_z
 _atom_site_occupancy
  Li  Li0  1  -0.05912510  -0.11281980  0.60100255  1
  Li  Li1  1  0.40492752  0.79277163  -0.13574578  1
  Li  Li2  1  0.53927161  -0.02692374  0.22486210  1
  Li  Li3  1  -0.03074111  0.48802570  0.83066798  1
  P  P4  1  0.55620303  0.43740551  0.42136165  1
  P  P5  1  0.03315142  0.01895885  0.09915424  1
  Cl  Cl6  1  0.74311076  0.29743766  0.60303815  1
  Cl  Cl7  1  0.33542889  0.70261761  0.12435373  1
  Cl  Cl8  1  0.22817956  0.65393831  0.66537983  1
  Cl  Cl9  1  0.77501855  0.26390325  0.07342648  1
  Cl  Cl10  1  0.33247503  0.18550116  0.40950891  1
  Cl  Cl11  1  0.76229456  0.80142809  0.83108419  1
  Cl  Cl12  1  0.83663293  0.83273000  0.35294829  1
  Cl  Cl13  1  0.20983900  0.16502577  0.89895767  1
