# generated using pymatgen
data_KICl2
_symmetry_space_group_name_H-M   'P 1'
_cell_length_a   5.58707222
_cell_length_b   5.58707135
_cell_length_c   7.90343290
_cell_angle_alpha   90.00002746
_cell_angle_beta   90.00003030
_cell_angle_gamma   89.99999867
_symmetry_Int_Tables_number   1
_chemical_formula_structural   KICl2
_chemical_formula_sum   'K2 I2 Cl4'
_cell_volume   246.70859151
_cell_formula_units_Z   2
loop_
 _symmetry_equiv_pos_site_id
 _symmetry_equiv_pos_as_xyz
  1  'x, y, z'
loop_
 _atom_site_type_symbol
 _atom_site_label
 _atom_site_symmetry_multiplicity
 _atom_site_fract_x
 _atom_site_fract_y
 _atom_site_fract_z
 _atom_site_occupancy
  K  K0  1  -0.00000000  -0.00000000  0.49999998  1
  K  K1  1  0.50000000  0.50000000  0.00000002  1
  I  I2  1  0.50000000  0.50000000  0.50000002  1
  I  I3  1  -0.00000000  0.00000001  -0.00000002  1
  Cl  Cl4  1  0.00000007  0.49999996  0.24999995  1
  Cl  Cl5  1  0.50000005  -0.00000007  0.75000002  1
  Cl  Cl6  1  0.49999995  0.00000006  0.24999999  1
  Cl  Cl7  1  -0.00000006  0.50000004  0.75000004  1
