# generated using pymatgen
data_K2NaBr
_symmetry_space_group_name_H-M   'P 1'
_cell_length_a   6.15760984
_cell_length_b   6.15761013
_cell_length_c   8.94644541
_cell_angle_alpha   90.00000258
_cell_angle_beta   90.00000187
_cell_angle_gamma   89.99999951
_symmetry_Int_Tables_number   1
_chemical_formula_structural   K2NaBr
_chemical_formula_sum   'K4 Na2 Br2'
_cell_volume   339.21486242
_cell_formula_units_Z   2
loop_
 _symmetry_equiv_pos_site_id
 _symmetry_equiv_pos_as_xyz
  1  'x, y, z'
loop_
 _atom_site_type_symbol
 _atom_site_label
 _atom_site_symmetry_multiplicity
 _atom_site_fract_x
 _atom_site_fract_y
 _atom_site_fract_z
 _atom_site_occupancy
  K  K0  1  0.50000003  -0.00000002  0.81878586  1
  K  K1  1  0.00000001  0.49999995  0.81878587  1
  K  K2  1  -0.00000001  0.49999999  0.31878587  1
  K  K3  1  0.49999991  0.00000001  0.31878585  1
  Na  Na4  1  0.50000001  0.50000002  0.06877311  1
  Na  Na5  1  0.50000000  0.50000001  0.56877314  1
  Br  Br6  1  0.00000003  0.00000002  0.05884560  1
  Br  Br7  1  0.00000002  0.00000002  0.55884561  1
