# generated using pymatgen
data_Li7IO4
_symmetry_space_group_name_H-M   'P 1'
_cell_length_a   7.21797068
_cell_length_b   7.21795416
_cell_length_c   6.08038025
_cell_angle_alpha   89.99999165
_cell_angle_beta   90.00002020
_cell_angle_gamma   90.00032880
_symmetry_Int_Tables_number   1
_chemical_formula_structural   Li7IO4
_chemical_formula_sum   'Li14 I2 O8'
_cell_volume   316.78161826
_cell_formula_units_Z   2
loop_
 _symmetry_equiv_pos_site_id
 _symmetry_equiv_pos_as_xyz
  1  'x, y, z'
loop_
 _atom_site_type_symbol
 _atom_site_label
 _atom_site_symmetry_multiplicity
 _atom_site_fract_x
 _atom_site_fract_y
 _atom_site_fract_z
 _atom_site_occupancy
  Li  Li0  1  -0.00000485  0.49999687  0.10520514  1
  Li  Li1  1  0.73034726  0.76893328  0.35653354  1
  Li  Li2  1  0.26965621  0.23107591  0.35654403  1
  Li  Li3  1  0.00002265  0.00001720  0.10729126  1
  Li  Li4  1  0.50004737  -0.00001964  0.10520643  1
  Li  Li5  1  0.76893696  0.26963069  0.35649868  1
  Li  Li6  1  0.23107731  0.73032465  0.35658176  1
  Li  Li7  1  0.00002112  0.50000765  0.60520589  1
  Li  Li8  1  0.26893333  0.23035283  0.85653195  1
  Li  Li9  1  0.73107140  0.76965797  0.85654433  1
  Li  Li10  1  0.49992842  0.49999891  0.60729249  1
  Li  Li11  1  0.50000725  -0.00003202  0.60520634  1
  Li  Li12  1  0.76965754  0.26891100  0.85658011  1
  Li  Li13  1  0.23035599  0.73104610  0.85649688  1
  I  I14  1  -0.00000869  0.00000031  0.60617778  1
  I  I15  1  0.50001105  0.50001911  0.10617771  1
  O  O16  1  0.91920368  0.26932361  0.10689461  1
  O  O17  1  0.08077609  0.73061321  0.10689586  1
  O  O18  1  0.26931499  0.08080490  0.10689553  1
  O  O19  1  0.73060009  0.91923024  0.10689642  1
  O  O20  1  0.76938761  0.41925586  0.60689470  1
  O  O21  1  0.23068577  0.58078663  0.60689478  1
  O  O22  1  0.58075279  0.76938539  0.60689553  1
  O  O23  1  0.41921865  0.23067932  0.60689548  1
