# generated using pymatgen
data_Li6SI2
_symmetry_space_group_name_H-M   'P 1'
_cell_length_a   6.62321668
_cell_length_b   6.62321651
_cell_length_c   8.87281030
_cell_angle_alpha   90.00000003
_cell_angle_beta   89.99999847
_cell_angle_gamma   90.00001992
_symmetry_Int_Tables_number   1
_chemical_formula_structural   Li6SI2
_chemical_formula_sum   'Li12 S2 I4'
_cell_volume   389.22355273
_cell_formula_units_Z   2
loop_
 _symmetry_equiv_pos_site_id
 _symmetry_equiv_pos_as_xyz
  1  'x, y, z'
loop_
 _atom_site_type_symbol
 _atom_site_label
 _atom_site_symmetry_multiplicity
 _atom_site_fract_x
 _atom_site_fract_y
 _atom_site_fract_z
 _atom_site_occupancy
  Li  Li0  1  0.75000013  0.74999974  -0.00000054  1
  Li  Li1  1  0.24999977  0.74999976  -0.00000051  1
  Li  Li2  1  0.24999957  0.25000028  -0.00000068  1
  Li  Li3  1  0.75000031  0.25000030  -0.00000074  1
  Li  Li4  1  0.24999719  0.74999748  0.49999914  1
  Li  Li5  1  0.24999737  0.25000277  0.49999907  1
  Li  Li6  1  0.75000279  0.74999734  0.49999916  1
  Li  Li7  1  0.49999977  -0.00000079  0.73003904  1
  Li  Li8  1  0.49999971  -0.00000072  0.27026290  1
  Li  Li9  1  0.75000259  0.25000288  0.49999905  1
  Li  Li10  1  0.00000053  0.50000021  0.26996339  1
  Li  Li11  1  0.00000038  0.50000062  0.72974183  1
  S  S12  1  0.50000006  -0.00000006  0.00019681  1
  S  S13  1  -0.00000001  0.49999982  -0.00020319  1
  I  I14  1  0.00000014  -0.00000021  0.73710327  1
  I  I15  1  0.49999969  0.50000026  0.26289937  1
  I  I16  1  0.00000009  -0.00000026  0.26289937  1
  I  I17  1  0.49999993  0.50000058  0.73710326  1
