# generated using pymatgen
data_LiPN6
_symmetry_space_group_name_H-M   'P 1'
_cell_length_a   7.08708429
_cell_length_b   5.77319170
_cell_length_c   5.10923587
_cell_angle_alpha   95.62221062
_cell_angle_beta   89.96526110
_cell_angle_gamma   90.10244139
_symmetry_Int_Tables_number   1
_chemical_formula_structural   LiPN6
_chemical_formula_sum   'Li2 P2 N12'
_cell_volume   208.03891389
_cell_formula_units_Z   2
loop_
 _symmetry_equiv_pos_site_id
 _symmetry_equiv_pos_as_xyz
  1  'x, y, z'
loop_
 _atom_site_type_symbol
 _atom_site_label
 _atom_site_symmetry_multiplicity
 _atom_site_fract_x
 _atom_site_fract_y
 _atom_site_fract_z
 _atom_site_occupancy
  Li  Li0  1  0.39633318  0.05295803  0.22850845  1
  Li  Li1  1  0.60392673  0.55036088  0.72804220  1
  P  P2  1  0.00996387  0.39138807  0.32917438  1
  P  P3  1  -0.01028778  -0.10922762  0.82904734  1
  N  N4  1  -0.16968595  0.49988462  0.94777400  1
  N  N5  1  0.83797754  0.32817544  0.09627902  1
  N  N6  1  -0.02174873  0.63505382  0.95410925  1
  N  N7  1  0.16944660  0.00120763  0.44788033  1
  N  N8  1  0.16175724  0.82921134  0.59599576  1
  N  N9  1  0.02167822  0.13600790  0.45463490  1
  N  N10  1  0.64908331  0.03228700  0.62623842  1
  N  N11  1  0.56543164  0.19768714  0.57888854  1
  N  N12  1  0.73120106  0.85846815  0.66921672  1
  N  N13  1  0.35105529  0.53504455  0.12639009  1
  N  N14  1  0.43445330  0.70057182  0.07743907  1
  N  N15  1  0.26941449  0.36092125  0.17088291  1
