# generated using pymatgen
data_NaCS2
_symmetry_space_group_name_H-M   'P 1'
_cell_length_a   5.63059986
_cell_length_b   5.72784765
_cell_length_c   5.85925997
_cell_angle_alpha   97.47829522
_cell_angle_beta   69.01807290
_cell_angle_gamma   93.67872493
_symmetry_Int_Tables_number   1
_chemical_formula_structural   NaCS2
_chemical_formula_sum   'Na2 C2 S4'
_cell_volume   174.90622039
_cell_formula_units_Z   2
loop_
 _symmetry_equiv_pos_site_id
 _symmetry_equiv_pos_as_xyz
  1  'x, y, z'
loop_
 _atom_site_type_symbol
 _atom_site_label
 _atom_site_symmetry_multiplicity
 _atom_site_fract_x
 _atom_site_fract_y
 _atom_site_fract_z
 _atom_site_occupancy
  Na  Na0  1  0.05223309  0.49884898  0.24885469  1
  Na  Na1  1  0.65340019  -0.08443600  0.02295577  1
  C  C2  1  0.39677361  0.40373877  0.53558294  1
  C  C3  1  -0.26412667  0.01540293  0.57989178  1
  S  S4  1  0.55109125  0.41736941  0.23042615  1
  S  S5  1  0.15855721  0.57208557  0.72878617  1
  S  S6  1  -0.02235862  -0.00112959  0.30803240  1
  S  S7  1  0.47442994  0.17811994  0.69295534  1
