# generated using pymatgen
data_K2BeI
_symmetry_space_group_name_H-M   'P 1'
_cell_length_a   8.61458987
_cell_length_b   8.61458900
_cell_length_c   8.61458931
_cell_angle_alpha   90.00000086
_cell_angle_beta   89.99999932
_cell_angle_gamma   89.99999853
_symmetry_Int_Tables_number   1
_chemical_formula_structural   K2BeI
_chemical_formula_sum   'K8 Be4 I4'
_cell_volume   639.29858970
_cell_formula_units_Z   4
loop_
 _symmetry_equiv_pos_site_id
 _symmetry_equiv_pos_as_xyz
  1  'x, y, z'
loop_
 _atom_site_type_symbol
 _atom_site_label
 _atom_site_symmetry_multiplicity
 _atom_site_fract_x
 _atom_site_fract_y
 _atom_site_fract_z
 _atom_site_occupancy
  K  K0  1  0.00000002  -0.00000001  0.50000003  1
  K  K1  1  -0.00000001  0.50000002  -0.00000000  1
  K  K2  1  0.50000000  0.49999999  0.50000000  1
  K  K3  1  0.49999997  -0.00000002  -0.00000002  1
  K  K4  1  0.50000000  -0.00000005  0.50000000  1
  K  K5  1  0.00000002  0.49999999  0.50000001  1
  K  K6  1  0.00000001  0.00000002  -0.00000000  1
  K  K7  1  0.49999998  0.50000002  -0.00000000  1
  Be  Be8  1  0.25000000  0.75000000  0.75000000  1
  Be  Be9  1  0.75000000  0.75000000  0.25000000  1
  Be  Be10  1  0.75000001  0.25000000  0.75000000  1
  Be  Be11  1  0.25000000  0.25000001  0.25000001  1
  I  I12  1  0.25000000  0.75000001  0.25000000  1
  I  I13  1  0.75000001  0.25000001  0.25000000  1
  I  I14  1  0.75000000  0.75000000  0.75000000  1
  I  I15  1  0.25000000  0.25000000  0.75000000  1
