# generated using pymatgen
data_Na2Cl5O
_symmetry_space_group_name_H-M   'P 1'
_cell_length_a   6.72589494
_cell_length_b   6.72589612
_cell_length_c   7.42432272
_cell_angle_alpha   89.99989127
_cell_angle_beta   89.99989017
_cell_angle_gamma   90.00003119
_symmetry_Int_Tables_number   1
_chemical_formula_structural   Na2Cl5O
_chemical_formula_sum   'Na4 Cl10 O2'
_cell_volume   335.85906596
_cell_formula_units_Z   2
loop_
 _symmetry_equiv_pos_site_id
 _symmetry_equiv_pos_as_xyz
  1  'x, y, z'
loop_
 _atom_site_type_symbol
 _atom_site_label
 _atom_site_symmetry_multiplicity
 _atom_site_fract_x
 _atom_site_fract_y
 _atom_site_fract_z
 _atom_site_occupancy
  Na  Na0  1  0.50000000  -0.00000000  0.00000026  1
  Na  Na1  1  -0.00000000  0.50000000  0.49999978  1
  Na  Na2  1  0.50000000  -0.00000000  0.49999978  1
  Na  Na3  1  -0.00000000  0.50000000  0.00000026  1
  Cl  Cl4  1  0.76502727  0.23497272  0.25000278  1
  Cl  Cl5  1  0.23497242  0.76502757  0.74999732  1
  Cl  Cl6  1  0.76502758  0.23497243  0.74999733  1
  Cl  Cl7  1  0.23497245  0.23497245  0.74999498  1
  Cl  Cl8  1  0.76502727  0.76502726  0.25000513  1
  Cl  Cl9  1  0.50000000  0.50000000  -0.00000044  1
  Cl  Cl10  1  0.23497272  0.76502727  0.25000277  1
  Cl  Cl11  1  0.76502758  0.76502758  0.74999964  1
  Cl  Cl12  1  0.23497270  0.23497270  0.25000049  1
  Cl  Cl13  1  0.50000000  0.50000002  0.50000060  1
  O  O14  1  0.00000001  -0.00000002  -0.00000405  1
  O  O15  1  0.00000001  0.00000003  0.50000336  1
