# generated using pymatgen
data_Li(BrO2)2
_symmetry_space_group_name_H-M   'P 1'
_cell_length_a   6.82604453
_cell_length_b   5.73278731
_cell_length_c   6.44348446
_cell_angle_alpha   91.52752059
_cell_angle_beta   100.93650388
_cell_angle_gamma   87.91016317
_symmetry_Int_Tables_number   1
_chemical_formula_structural   Li(BrO2)2
_chemical_formula_sum   'Li2 Br4 O8'
_cell_volume   247.35388335
_cell_formula_units_Z   2
loop_
 _symmetry_equiv_pos_site_id
 _symmetry_equiv_pos_as_xyz
  1  'x, y, z'
loop_
 _atom_site_type_symbol
 _atom_site_label
 _atom_site_symmetry_multiplicity
 _atom_site_fract_x
 _atom_site_fract_y
 _atom_site_fract_z
 _atom_site_occupancy
  Li  Li0  1  0.83816823  0.35623372  0.75394100  1
  Li  Li1  1  0.16179453  0.64380287  0.24608100  1
  Br  Br2  1  0.73727331  0.47485914  0.19498906  1
  Br  Br3  1  0.70168463  0.88752356  0.71308406  1
  Br  Br4  1  0.26275277  0.52512069  0.80500934  1
  Br  Br5  1  0.29828219  0.11246862  0.28694774  1
  O  O6  1  0.12379556  0.30866031  0.87701261  1
  O  O7  1  0.87619928  -0.30866655  0.12295608  1
  O  O8  1  0.19412766  0.35116160  0.39758605  1
  O  O9  1  0.80588148  0.64880570  0.60241602  1
  O  O10  1  0.66639130  0.30846755  -0.03199230  1
  O  O11  1  0.33363622  0.69155298  0.03197981  1
  O  O12  1  0.70592056  0.11849113  0.55135240  1
  O  O13  1  0.29409228  0.88151868  0.44863713  1
