# generated using pymatgen
data_K2ICl5
_symmetry_space_group_name_H-M   'P 1'
_cell_length_a   8.53374986
_cell_length_b   8.53375199
_cell_length_c   9.80637497
_cell_angle_alpha   89.99997955
_cell_angle_beta   89.99997265
_cell_angle_gamma   89.99967402
_symmetry_Int_Tables_number   1
_chemical_formula_structural   K2ICl5
_chemical_formula_sum   'K4 I2 Cl10'
_cell_volume   714.14832402
_cell_formula_units_Z   2
loop_
 _symmetry_equiv_pos_site_id
 _symmetry_equiv_pos_as_xyz
  1  'x, y, z'
loop_
 _atom_site_type_symbol
 _atom_site_label
 _atom_site_symmetry_multiplicity
 _atom_site_fract_x
 _atom_site_fract_y
 _atom_site_fract_z
 _atom_site_occupancy
  K  K0  1  0.49999978  -0.00000004  0.50000008  1
  K  K1  1  -0.00000007  0.50000004  0.49999990  1
  K  K2  1  0.00000005  0.49999999  0.00000006  1
  K  K3  1  0.49999984  -0.00000011  0.00000010  1
  I  I4  1  0.49999987  0.50000004  0.50000001  1
  I  I5  1  0.00000010  -0.00000005  -0.00000003  1
  Cl  Cl6  1  0.71478267  0.28521719  0.49999999  1
  Cl  Cl7  1  0.28521733  0.71478278  0.50000000  1
  Cl  Cl8  1  0.28521700  0.28521707  0.49999885  1
  Cl  Cl9  1  0.71478280  0.71478312  0.50000114  1
  Cl  Cl10  1  0.00000032  -0.00000007  0.49999997  1
  Cl  Cl11  1  0.78520186  0.21479841  -0.00000001  1
  Cl  Cl12  1  0.21479826  0.78520182  -0.00000005  1
  Cl  Cl13  1  0.21479857  0.21479834  0.00000113  1
  Cl  Cl14  1  0.78520172  0.78520130  -0.00000118  1
  Cl  Cl15  1  0.49999989  0.50000018  0.00000006  1
