# generated using pymatgen
data_Na2IN
_symmetry_space_group_name_H-M   'P 1'
_cell_length_a   5.98388414
_cell_length_b   5.97965482
_cell_length_c   6.21778893
_cell_angle_alpha   90.00000102
_cell_angle_beta   90.00000855
_cell_angle_gamma   89.99975362
_symmetry_Int_Tables_number   1
_chemical_formula_structural   Na2IN
_chemical_formula_sum   'Na4 I2 N2'
_cell_volume   222.48219787
_cell_formula_units_Z   2
loop_
 _symmetry_equiv_pos_site_id
 _symmetry_equiv_pos_as_xyz
  1  'x, y, z'
loop_
 _atom_site_type_symbol
 _atom_site_label
 _atom_site_symmetry_multiplicity
 _atom_site_fract_x
 _atom_site_fract_y
 _atom_site_fract_z
 _atom_site_occupancy
  Na  Na0  1  0.49999999  -0.00000000  0.50000000  1
  Na  Na1  1  0.50000000  0.50000000  -0.00000000  1
  Na  Na2  1  -0.00000001  -0.00000000  -0.00000000  1
  Na  Na3  1  -0.00000001  0.50000000  0.50000000  1
  I  I4  1  0.49999999  0.00000000  -0.00000000  1
  I  I5  1  -0.00000001  0.50000000  -0.00000000  1
  N  N6  1  0.50000000  0.50000000  0.50000000  1
  N  N7  1  0.00000004  0.00000000  0.50000000  1
