# generated using pymatgen
data_Na2IN
_symmetry_space_group_name_H-M   'P 1'
_cell_length_a   6.59592790
_cell_length_b   7.65187869
_cell_length_c   4.15137973
_cell_angle_alpha   89.99454275
_cell_angle_beta   89.99156895
_cell_angle_gamma   73.99281617
_symmetry_Int_Tables_number   1
_chemical_formula_structural   Na2IN
_chemical_formula_sum   'Na4 I2 N2'
_cell_volume   201.40138369
_cell_formula_units_Z   2
loop_
 _symmetry_equiv_pos_site_id
 _symmetry_equiv_pos_as_xyz
  1  'x, y, z'
loop_
 _atom_site_type_symbol
 _atom_site_label
 _atom_site_symmetry_multiplicity
 _atom_site_fract_x
 _atom_site_fract_y
 _atom_site_fract_z
 _atom_site_occupancy
  Na  Na0  1  0.03732527  0.61251786  0.50009309  1
  Na  Na1  1  0.01397484  0.22944504  0.50016989  1
  Na  Na2  1  0.43177768  0.88743489  -0.00015501  1
  Na  Na3  1  0.45448000  0.27039346  -0.00013805  1
  I  I4  1  -0.08262670  -0.05478273  0.00013574  1
  I  I5  1  0.55158351  0.55474914  0.49985511  1
  N  N6  1  0.39049225  0.09395528  0.49996473  1
  N  N7  1  0.07799315  0.40628705  0.00007450  1
