# generated using pymatgen
data_Li3B3I2
_symmetry_space_group_name_H-M   'P 1'
_cell_length_a   6.42769841
_cell_length_b   6.42769841
_cell_length_c   6.42769832
_cell_angle_alpha   89.99999749
_cell_angle_beta   90.00001016
_cell_angle_gamma   89.99999825
_symmetry_Int_Tables_number   1
_chemical_formula_structural   Li3B3I2
_chemical_formula_sum   'Li6 B6 I4'
_cell_volume   265.56232831
_cell_formula_units_Z   2
loop_
 _symmetry_equiv_pos_site_id
 _symmetry_equiv_pos_as_xyz
  1  'x, y, z'
loop_
 _atom_site_type_symbol
 _atom_site_label
 _atom_site_symmetry_multiplicity
 _atom_site_fract_x
 _atom_site_fract_y
 _atom_site_fract_z
 _atom_site_occupancy
  Li  Li0  1  -0.00000033  0.49999884  -0.00000030  1
  Li  Li1  1  0.50000034  0.00000122  0.50000031  1
  Li  Li2  1  -0.00000032  0.49999863  0.50000031  1
  Li  Li3  1  0.50000032  0.00000131  -0.00000030  1
  Li  Li4  1  0.50000034  0.49999865  -0.00000029  1
  Li  Li5  1  -0.00000033  0.00000131  0.50000028  1
  B  B6  1  0.50000008  0.49999942  0.50000006  1
  B  B7  1  -0.00000008  0.00000059  -0.00000006  1
  B  B8  1  0.75000000  0.25000001  0.75000000  1
  B  B9  1  0.25000000  0.75000001  0.75000000  1
  B  B10  1  0.25000000  0.25000001  0.25000000  1
  B  B11  1  0.75000000  0.75000001  0.25000000  1
  I  I12  1  0.75000000  0.25000000  0.25000000  1
  I  I13  1  0.25000000  0.75000000  0.24999999  1
  I  I14  1  0.25000000  0.25000001  0.75000000  1
  I  I15  1  0.75000000  0.75000001  0.75000000  1
