# generated using pymatgen
data_Li5S2I
_symmetry_space_group_name_H-M   'P 1'
_cell_length_a   7.13035418
_cell_length_b   4.17921909
_cell_length_c   10.62463385
_cell_angle_alpha   89.99993140
_cell_angle_beta   89.99993790
_cell_angle_gamma   90.00000334
_symmetry_Int_Tables_number   1
_chemical_formula_structural   Li5S2I
_chemical_formula_sum   'Li10 S4 I2'
_cell_volume   316.60678241
_cell_formula_units_Z   2
loop_
 _symmetry_equiv_pos_site_id
 _symmetry_equiv_pos_as_xyz
  1  'x, y, z'
loop_
 _atom_site_type_symbol
 _atom_site_label
 _atom_site_symmetry_multiplicity
 _atom_site_fract_x
 _atom_site_fract_y
 _atom_site_fract_z
 _atom_site_occupancy
  Li  Li0  1  -0.00000004  0.50000078  0.66708707  1
  Li  Li1  1  0.34116595  0.50169608  0.03330754  1
  Li  Li2  1  0.65883536  0.49830387  0.03330499  1
  Li  Li3  1  0.31985736  -0.00023981  0.73786666  1
  Li  Li4  1  0.68014236  0.00024064  0.73786624  1
  Li  Li5  1  0.50000076  -0.00000087  0.33291308  1
  Li  Li6  1  0.15883448  0.00169620  -0.03330741  1
  Li  Li7  1  0.84116460  -0.00169583  -0.03330514  1
  Li  Li8  1  0.18014211  0.49975951  0.26213308  1
  Li  Li9  1  0.81985742  0.50023983  0.26213355  1
  S  S10  1  -0.00000054  0.00000048  0.76641485  1
  S  S11  1  0.49999971  0.00000021  0.93585630  1
  S  S12  1  0.50000034  0.49999940  0.23358536  1
  S  S13  1  0.00000028  0.49999991  0.06414364  1
  I  I14  1  0.50000069  0.50000075  0.60162687  1
  I  I15  1  -0.00000085  -0.00000115  0.39837331  1
