# generated using pymatgen
data_KPI2
_symmetry_space_group_name_H-M   'P 1'
_cell_length_a   8.28188441
_cell_length_b   8.28188612
_cell_length_c   8.28188441
_cell_angle_alpha   90.00003632
_cell_angle_beta   90.00079625
_cell_angle_gamma   89.99977734
_symmetry_Int_Tables_number   1
_chemical_formula_structural   KPI2
_chemical_formula_sum   'K4 P4 I8'
_cell_volume   568.05133388
_cell_formula_units_Z   4
loop_
 _symmetry_equiv_pos_site_id
 _symmetry_equiv_pos_as_xyz
  1  'x, y, z'
loop_
 _atom_site_type_symbol
 _atom_site_label
 _atom_site_symmetry_multiplicity
 _atom_site_fract_x
 _atom_site_fract_y
 _atom_site_fract_z
 _atom_site_occupancy
  K  K0  1  -0.00000002  0.00000002  -0.00000002  1
  K  K1  1  0.50000006  -0.00000001  0.50000002  1
  K  K2  1  0.49999998  0.49999999  -0.00000000  1
  K  K3  1  -0.00000003  0.50000000  0.50000003  1
  P  P4  1  0.49999999  0.50000001  0.49999998  1
  P  P5  1  0.50000000  0.00000001  0.00000000  1
  P  P6  1  -0.00000002  0.50000004  0.00000002  1
  P  P7  1  0.00000003  0.00000000  0.49999999  1
  I  I8  1  0.22834515  0.22834301  0.22834050  1
  I  I9  1  0.27166048  0.72834109  0.22834545  1
  I  I10  1  0.72833954  0.27165890  0.77165453  1
  I  I11  1  0.77165659  0.72834277  0.27165860  1
  I  I12  1  0.22834344  0.27165719  0.72834138  1
  I  I13  1  0.77165485  0.77165698  0.77165953  1
  I  I14  1  0.27165815  0.77165760  0.72834218  1
  I  I15  1  0.72834181  0.22834241  0.27165780  1
