# generated using pymatgen
data_Li2IO3
_symmetry_space_group_name_H-M   'P 1'
_cell_length_a   4.17920644
_cell_length_b   4.19027366
_cell_length_c   4.68639517
_cell_angle_alpha   90.17128112
_cell_angle_beta   90.07533569
_cell_angle_gamma   90.04572693
_symmetry_Int_Tables_number   1
_chemical_formula_structural   Li2IO3
_chemical_formula_sum   'Li2 I1 O3'
_cell_volume   82.06777556
_cell_formula_units_Z   1
loop_
 _symmetry_equiv_pos_site_id
 _symmetry_equiv_pos_as_xyz
  1  'x, y, z'
loop_
 _atom_site_type_symbol
 _atom_site_label
 _atom_site_symmetry_multiplicity
 _atom_site_fract_x
 _atom_site_fract_y
 _atom_site_fract_z
 _atom_site_occupancy
  Li  Li0  1  0.52751789  -0.00006072  0.13710266  1
  Li  Li1  1  0.02765289  0.50060888  0.13385900  1
  I  I2  1  0.52846132  0.49991575  0.63239282  1
  O  O3  1  0.52779027  0.49988794  0.14962248  1
  O  O4  1  0.02776993  0.00000973  0.07717392  1
  O  O5  1  0.02747437  -0.00036159  0.36984912  1
