# generated using pymatgen
data_LiB5Br6
_symmetry_space_group_name_H-M   'P 1'
_cell_length_a   9.02289915
_cell_length_b   8.11255193
_cell_length_c   10.66565805
_cell_angle_alpha   93.80374813
_cell_angle_beta   80.13082608
_cell_angle_gamma   114.73343899
_symmetry_Int_Tables_number   1
_chemical_formula_structural   LiB5Br6
_chemical_formula_sum   'Li2 B10 Br12'
_cell_volume   698.58737736
_cell_formula_units_Z   2
loop_
 _symmetry_equiv_pos_site_id
 _symmetry_equiv_pos_as_xyz
  1  'x, y, z'
loop_
 _atom_site_type_symbol
 _atom_site_label
 _atom_site_symmetry_multiplicity
 _atom_site_fract_x
 _atom_site_fract_y
 _atom_site_fract_z
 _atom_site_occupancy
  Li  Li0  1  -0.00723199  0.38152367  0.35449888  1
  Li  Li1  1  0.50724557  0.11849174  0.64549722  1
  B  B2  1  0.46150083  0.80560895  0.22684400  1
  B  B3  1  0.59862995  0.04059047  0.22059785  1
  B  B4  1  0.48708664  0.12461325  0.32831089  1
  B  B5  1  0.43555037  -0.09311031  0.35738546  1
  B  B6  1  0.01292550  0.37535062  0.67168876  1
  B  B7  1  0.06446907  0.59310259  0.64258867  1
  B  B8  1  0.90134470  0.45942038  0.77941949  1
  B  B9  1  0.03851120  0.69438116  0.77316076  1
  B  B10  1  0.25465123  0.38894256  0.26544186  1
  B  B11  1  0.24534622  0.11106170  -0.26545095  1
  Br  Br12  1  0.04001377  0.58458855  -0.06089380  1
  Br  Br13  1  0.45999830  -0.08459958  0.06091131  1
  Br  Br14  1  -0.09866180  0.17099216  0.55789426  1
  Br  Br15  1  0.22837804  0.34960623  0.71452954  1
  Br  Br16  1  0.48756676  0.82688253  0.51196876  1
  Br  Br17  1  -0.15602990  0.14476235  0.17126756  1
  Br  Br18  1  0.00136915  -0.07633964  0.79502553  1
  Br  Br19  1  0.59864339  0.32898496  0.44209606  1
  Br  Br20  1  0.27162560  0.15039971  0.28547026  1
  Br  Br21  1  0.01241953  0.67313271  0.48801907  1
  Br  Br22  1  0.65602789  0.35524425  0.82874391  1
  Br  Br23  1  0.49861998  0.57636901  0.20498468  1
