# generated using pymatgen
data_K3Br3O2
_symmetry_space_group_name_H-M   'P 1'
_cell_length_a   7.54622907
_cell_length_b   7.54664400
_cell_length_c   7.54653507
_cell_angle_alpha   89.99406831
_cell_angle_beta   90.00537372
_cell_angle_gamma   89.99585864
_symmetry_Int_Tables_number   1
_chemical_formula_structural   K3Br3O2
_chemical_formula_sum   'K6 Br6 O4'
_cell_volume   429.76538932
_cell_formula_units_Z   2
loop_
 _symmetry_equiv_pos_site_id
 _symmetry_equiv_pos_as_xyz
  1  'x, y, z'
loop_
 _atom_site_type_symbol
 _atom_site_label
 _atom_site_symmetry_multiplicity
 _atom_site_fract_x
 _atom_site_fract_y
 _atom_site_fract_z
 _atom_site_occupancy
  K  K0  1  0.50001734  0.00000935  0.50000383  1
  K  K1  1  -0.00001734  0.49999065  -0.00000383  1
  K  K2  1  -0.00001650  0.49998611  0.50001252  1
  K  K3  1  0.50001650  0.00001389  -0.00001252  1
  K  K4  1  0.50001744  0.49999318  -0.00000120  1
  K  K5  1  -0.00001744  0.00000682  0.50000120  1
  Br  Br6  1  -0.00000025  0.00000086  -0.00000267  1
  Br  Br7  1  0.50000025  0.49999914  0.50000267  1
  Br  Br8  1  0.75000000  0.25000000  0.75000000  1
  Br  Br9  1  0.25000000  0.75000000  0.75000000  1
  Br  Br10  1  0.25000000  0.25000000  0.25000000  1
  Br  Br11  1  0.75000000  0.75000000  0.25000000  1
  O  O12  1  0.75000000  0.75000000  0.75000000  1
  O  O13  1  0.25000000  0.75000000  0.25000000  1
  O  O14  1  0.75000000  0.25000000  0.25000000  1
  O  O15  1  0.25000000  0.25000000  0.75000000  1
