# generated using pymatgen
data_Li2CI4
_symmetry_space_group_name_H-M   'P 1'
_cell_length_a   4.83271337
_cell_length_b   7.51301371
_cell_length_c   7.46204971
_cell_angle_alpha   94.73498462
_cell_angle_beta   64.25605031
_cell_angle_gamma   87.82008293
_symmetry_Int_Tables_number   1
_chemical_formula_structural   Li2CI4
_chemical_formula_sum   'Li2 C1 I4'
_cell_volume   242.38387757
_cell_formula_units_Z   1
loop_
 _symmetry_equiv_pos_site_id
 _symmetry_equiv_pos_as_xyz
  1  'x, y, z'
loop_
 _atom_site_type_symbol
 _atom_site_label
 _atom_site_symmetry_multiplicity
 _atom_site_fract_x
 _atom_site_fract_y
 _atom_site_fract_z
 _atom_site_occupancy
  Li  Li0  1  0.45542335  -0.17092243  -0.15189371  1
  Li  Li1  1  0.27773548  0.37270272  0.52747212  1
  C  C2  1  0.03586348  0.19813107  0.42463998  1
  I  I3  1  -0.01036339  0.65645749  0.81330410  1
  I  I4  1  0.25145767  -0.07020858  0.27575857  1
  I  I5  1  -0.09891156  0.34452559  0.22253596  1
  I  I6  1  0.58879498  0.16931415  0.70068298  1
