# generated using pymatgen
data_Na14Si12N
_symmetry_space_group_name_H-M   'P 1'
_cell_length_a   11.59419290
_cell_length_b   11.59434649
_cell_length_c   11.59416043
_cell_angle_alpha   90.00019726
_cell_angle_beta   89.99973035
_cell_angle_gamma   89.99993901
_symmetry_Int_Tables_number   1
_chemical_formula_structural   Na14Si12N
_chemical_formula_sum   'Na28 Si24 N2'
_cell_volume   1558.56924329
_cell_formula_units_Z   2
loop_
 _symmetry_equiv_pos_site_id
 _symmetry_equiv_pos_as_xyz
  1  'x, y, z'
loop_
 _atom_site_type_symbol
 _atom_site_label
 _atom_site_symmetry_multiplicity
 _atom_site_fract_x
 _atom_site_fract_y
 _atom_site_fract_z
 _atom_site_occupancy
  Na  Na0  1  0.80214916  0.50000023  0.00000241  1
  Na  Na1  1  -0.00000002  0.80214740  0.50000083  1
  Na  Na2  1  0.49999951  0.00000099  0.80214788  1
  Na  Na3  1  0.19785077  0.49999978  -0.00000242  1
  Na  Na4  1  0.00000001  0.19785261  0.49999917  1
  Na  Na5  1  0.50000039  -0.00000098  0.19785212  1
  Na  Na6  1  0.36527151  0.36527059  0.63472602  1
  Na  Na7  1  0.63472847  0.36527036  0.36527109  1
  Na  Na8  1  0.36527088  0.63473029  0.36527000  1
  Na  Na9  1  0.36527160  0.63472962  0.63472891  1
  Na  Na10  1  0.63472923  0.36526965  0.63473005  1
  Na  Na11  1  0.63472855  0.63472941  0.36527398  1
  Na  Na12  1  0.36527075  0.36526944  0.36526693  1
  Na  Na13  1  0.63472932  0.63473056  0.63473307  1
  Na  Na14  1  0.50000000  0.30214843  0.00000082  1
  Na  Na15  1  -0.00000042  0.50000100  0.30214713  1
  Na  Na16  1  0.00000044  0.49999900  0.69785288  1
  Na  Na17  1  0.30214939  0.00000022  0.50000242  1
  Na  Na18  1  0.50000000  0.69785156  -0.00000082  1
  Na  Na19  1  0.69785074  -0.00000023  0.49999759  1
  Na  Na20  1  0.13473173  0.86526816  0.13473231  1
  Na  Na21  1  0.13473122  0.13473103  0.86527158  1
  Na  Na22  1  0.86526884  0.13473128  0.13473134  1
  Na  Na23  1  0.86526869  0.86526896  0.13472841  1
  Na  Na24  1  0.13473106  0.86526873  0.86526865  1
  Na  Na25  1  0.86526813  0.13473189  0.86526765  1
  Na  Na26  1  0.13473202  0.13473229  0.13473552  1
  Na  Na27  1  0.86526788  0.86526771  0.86526448  1
  Si  Si28  1  0.11856420  0.59714837  0.50000008  1
  Si  Si29  1  0.50000066  0.11856162  0.59713774  1
  Si  Si30  1  0.59713759  0.50000047  0.11856599  1
  Si  Si31  1  0.40286237  0.49999952  0.88143405  1
  Si  Si32  1  0.88143581  0.40285166  0.49999993  1
  Si  Si33  1  0.49999948  0.88143839  0.40286226  1
  Si  Si34  1  0.40286127  0.50000069  0.11856113  1
  Si  Si35  1  0.49999945  0.11856354  0.40286181  1
  Si  Si36  1  0.11856427  0.40285138  0.49999805  1
  Si  Si37  1  0.59713869  0.49999929  0.88143884  1
  Si  Si38  1  0.88143575  0.59714860  0.50000195  1
  Si  Si39  1  0.50000069  0.88143646  0.59713819  1
  Si  Si40  1  -0.00000062  0.38143639  0.90286126  1
  Si  Si41  1  0.38143495  0.90285418  -0.00000007  1
  Si  Si42  1  0.90286256  -0.00000047  0.38143317  1
  Si  Si43  1  0.09713752  0.00000048  0.61856677  1
  Si  Si44  1  0.00000054  0.61856360  0.09713875  1
  Si  Si45  1  0.61856499  0.09714589  0.00000006  1
  Si  Si46  1  0.00000058  0.38143458  0.09713918  1
  Si  Si47  1  0.38143502  0.09714605  0.00000195  1
  Si  Si48  1  0.09713866  -0.00000069  0.38143795  1
  Si  Si49  1  0.90286144  0.00000071  0.61856212  1
  Si  Si50  1  -0.00000066  0.61856542  0.90286081  1
  Si  Si51  1  0.61856492  0.90285387  -0.00000196  1
  N  N52  1  0.50000000  0.50000003  0.49999998  1
  N  N53  1  -0.00000002  -0.00000002  0.00000002  1
