# generated using pymatgen
data_LiSi6I
_symmetry_space_group_name_H-M   'P 1'
_cell_length_a   5.24773309
_cell_length_b   5.24773334
_cell_length_c   5.24773337
_cell_angle_alpha   90.00000599
_cell_angle_beta   90.00000731
_cell_angle_gamma   90.00000789
_symmetry_Int_Tables_number   1
_chemical_formula_structural   LiSi6I
_chemical_formula_sum   'Li1 Si6 I1'
_cell_volume   144.51577532
_cell_formula_units_Z   1
loop_
 _symmetry_equiv_pos_site_id
 _symmetry_equiv_pos_as_xyz
  1  'x, y, z'
loop_
 _atom_site_type_symbol
 _atom_site_label
 _atom_site_symmetry_multiplicity
 _atom_site_fract_x
 _atom_site_fract_y
 _atom_site_fract_z
 _atom_site_occupancy
  Li  Li0  1  0.50000000  0.50000000  0.50000000  1
  Si  Si1  1  0.00000001  0.73258087  0.49999998  1
  Si  Si2  1  0.49999999  0.00000000  0.73258088  1
  Si  Si3  1  0.73258090  0.49999999  -0.00000001  1
  Si  Si4  1  -0.00000001  0.26741912  0.50000002  1
  Si  Si5  1  0.50000001  -0.00000000  0.26741912  1
  Si  Si6  1  0.26741910  0.50000001  0.00000001  1
  I  I7  1  0.00000000  -0.00000000  -0.00000000  1
