# generated using pymatgen
data_LiIO4
_symmetry_space_group_name_H-M   'P 1'
_cell_length_a   8.80067297
_cell_length_b   7.78465629
_cell_length_c   6.69739999
_cell_angle_alpha   89.97910902
_cell_angle_beta   90.00154311
_cell_angle_gamma   90.00014653
_symmetry_Int_Tables_number   1
_chemical_formula_structural   LiIO4
_chemical_formula_sum   'Li4 I4 O16'
_cell_volume   458.84027725
_cell_formula_units_Z   4
loop_
 _symmetry_equiv_pos_site_id
 _symmetry_equiv_pos_as_xyz
  1  'x, y, z'
loop_
 _atom_site_type_symbol
 _atom_site_label
 _atom_site_symmetry_multiplicity
 _atom_site_fract_x
 _atom_site_fract_y
 _atom_site_fract_z
 _atom_site_occupancy
  Li  Li0  1  -0.00001576  0.00000392  0.50007218  1
  Li  Li1  1  0.00000997  0.49999649  -0.00008741  1
  Li  Li2  1  0.49998411  0.49997885  0.49996510  1
  Li  Li3  1  0.50001058  0.00002204  0.00004943  1
  I  I4  1  0.25001114  0.25001540  0.74999993  1
  I  I5  1  0.25012323  0.74998098  0.25000042  1
  I  I6  1  0.75010916  0.75002827  0.75000229  1
  I  I7  1  0.74995843  0.24996504  0.24999699  1
  O  O8  1  0.63577186  0.67018828  0.25797197  1
  O  O9  1  0.63577446  0.82977531  0.24206059  1
  O  O10  1  0.86414461  0.67024762  0.24133251  1
  O  O11  1  0.86414237  0.82971634  0.25864323  1
  O  O12  1  0.13577364  0.82980930  0.74208765  1
  O  O13  1  0.13577379  0.67020712  0.75789199  1
  O  O14  1  0.36414828  0.67028157  0.74131265  1
  O  O15  1  0.36414939  0.82973541  0.75871019  1
  O  O16  1  0.13581530  0.32975581  0.24167891  1
  O  O17  1  0.13581571  0.17022641  0.25833692  1
  O  O18  1  0.36418859  0.32975168  0.25827524  1
  O  O19  1  0.36418847  0.17023167  0.24170869  1
  O  O20  1  0.63584086  0.32976732  0.74139855  1
  O  O21  1  0.63584740  0.17027245  0.75856164  1
  O  O22  1  0.86421990  0.32980316  0.75803738  1
  O  O23  1  0.86421452  0.17023957  0.74199296  1
