# generated using pymatgen
data_Li2PBr4
_symmetry_space_group_name_H-M   'P 1'
_cell_length_a   7.44167872
_cell_length_b   7.44168445
_cell_length_c   14.96062482
_cell_angle_alpha   89.97548652
_cell_angle_beta   89.97412636
_cell_angle_gamma   90.00025403
_symmetry_Int_Tables_number   1
_chemical_formula_structural   Li2PBr4
_chemical_formula_sum   'Li8 P4 Br16'
_cell_volume   828.49866866
_cell_formula_units_Z   4
loop_
 _symmetry_equiv_pos_site_id
 _symmetry_equiv_pos_as_xyz
  1  'x, y, z'
loop_
 _atom_site_type_symbol
 _atom_site_label
 _atom_site_symmetry_multiplicity
 _atom_site_fract_x
 _atom_site_fract_y
 _atom_site_fract_z
 _atom_site_occupancy
  Li  Li0  1  0.49988262  0.00009462  -0.00694631  1
  Li  Li1  1  0.49982708  0.00004711  0.50695698  1
  Li  Li2  1  0.49987819  0.49990543  0.25695403  1
  Li  Li3  1  0.49991396  0.49995277  0.74304475  1
  Li  Li4  1  0.00008609  0.49994896  0.00694394  1
  Li  Li5  1  0.00012138  0.49998820  0.49304369  1
  Li  Li6  1  0.00011697  0.00001176  0.75694915  1
  Li  Li7  1  0.00017287  0.00005088  0.24305396  1
  P  P8  1  0.49998856  -0.00001517  0.74999256  1
  P  P9  1  0.49991598  0.50001520  0.50000150  1
  P  P10  1  0.00008389  0.49994554  0.25000714  1
  P  P11  1  0.00001150  0.00005437  -0.00000125  1
  Br  Br12  1  0.75770787  0.74232596  0.24999500  1
  Br  Br13  1  0.24252742  0.25749366  0.24999367  1
  Br  Br14  1  0.75767072  0.25757098  0.24999489  1
  Br  Br15  1  0.24250067  0.74239678  0.24999549  1
  Br  Br16  1  0.24245711  0.75760561  0.00000186  1
  Br  Br17  1  0.75763237  0.24243235  0.00000005  1
  Br  Br18  1  0.75766186  0.75767235  -0.00000081  1
  Br  Br19  1  0.24249160  0.24250240  0.00000246  1
  Br  Br20  1  0.25751056  0.24245753  0.75000587  1
  Br  Br21  1  0.74234182  0.75763758  0.75000567  1
  Br  Br22  1  0.25754025  0.75756421  0.75000322  1
  Br  Br23  1  0.74236509  0.24239445  0.75000670  1
  Br  Br24  1  0.74232491  0.25761083  0.49999835  1
  Br  Br25  1  0.25749832  0.74243636  0.49999948  1
  Br  Br26  1  0.25747261  0.25753636  0.49999804  1
  Br  Br27  1  0.74229773  0.74236294  0.49999992  1
