# generated using pymatgen
data_K2SI
_symmetry_space_group_name_H-M   'P 1'
_cell_length_a   5.80438891
_cell_length_b   5.80439146
_cell_length_c   8.20699927
_cell_angle_alpha   90.00000505
_cell_angle_beta   90.00000629
_cell_angle_gamma   90.00000173
_symmetry_Int_Tables_number   1
_chemical_formula_structural   K2SI
_chemical_formula_sum   'K4 S2 I2'
_cell_volume   276.50156470
_cell_formula_units_Z   2
loop_
 _symmetry_equiv_pos_site_id
 _symmetry_equiv_pos_as_xyz
  1  'x, y, z'
loop_
 _atom_site_type_symbol
 _atom_site_label
 _atom_site_symmetry_multiplicity
 _atom_site_fract_x
 _atom_site_fract_y
 _atom_site_fract_z
 _atom_site_occupancy
  K  K0  1  0.49999999  -0.00000000  0.75000158  1
  K  K1  1  0.00000002  0.50000001  0.24999839  1
  K  K2  1  0.00000001  0.49999999  0.75000161  1
  K  K3  1  0.49999999  0.00000001  0.24999841  1
  S  S4  1  0.00000000  0.00000000  0.50000000  1
  S  S5  1  0.49999999  0.50000000  0.00000000  1
  I  I6  1  0.50000000  0.50000000  0.50000000  1
  I  I7  1  -0.00000000  -0.00000000  0.00000000  1
