# generated using pymatgen
data_LiNCl4
_symmetry_space_group_name_H-M   'P 1'
_cell_length_a   7.73155312
_cell_length_b   7.70633528
_cell_length_c   4.81891573
_cell_angle_alpha   89.99912806
_cell_angle_beta   90.00021589
_cell_angle_gamma   90.00469873
_symmetry_Int_Tables_number   1
_chemical_formula_structural   LiNCl4
_chemical_formula_sum   'Li2 N2 Cl8'
_cell_volume   287.12034974
_cell_formula_units_Z   2
loop_
 _symmetry_equiv_pos_site_id
 _symmetry_equiv_pos_as_xyz
  1  'x, y, z'
loop_
 _atom_site_type_symbol
 _atom_site_label
 _atom_site_symmetry_multiplicity
 _atom_site_fract_x
 _atom_site_fract_y
 _atom_site_fract_z
 _atom_site_occupancy
  Li  Li0  1  0.49998471  -0.00001752  0.37213584  1
  Li  Li1  1  0.00001249  0.49999797  0.62523670  1
  N  N2  1  0.50000007  0.49999357  -0.12783103  1
  N  N3  1  0.50000797  0.49999865  0.64047793  1
  Cl  Cl4  1  0.82671622  0.29550000  0.37234859  1
  Cl  Cl5  1  0.29610163  0.16926767  0.11868400  1
  Cl  Cl6  1  0.27150514  0.14100675  0.62419438  1
  Cl  Cl7  1  0.13881167  0.72629836  0.87975029  1
  Cl  Cl8  1  0.72848258  0.85900323  0.62419162  1
  Cl  Cl9  1  0.86119803  0.27370454  0.87976708  1
  Cl  Cl10  1  0.17329040  0.70451002  0.37236156  1
  Cl  Cl11  1  0.70388909  0.83073675  0.11868302  1
