# generated using pymatgen
data_NaSiCl2
_symmetry_space_group_name_H-M   'P 1'
_cell_length_a   5.16262508
_cell_length_b   5.16262512
_cell_length_c   8.44720351
_cell_angle_alpha   90.00017172
_cell_angle_beta   90.00028359
_cell_angle_gamma   90.00000019
_symmetry_Int_Tables_number   1
_chemical_formula_structural   NaSiCl2
_chemical_formula_sum   'Na2 Si2 Cl4'
_cell_volume   225.14076363
_cell_formula_units_Z   2
loop_
 _symmetry_equiv_pos_site_id
 _symmetry_equiv_pos_as_xyz
  1  'x, y, z'
loop_
 _atom_site_type_symbol
 _atom_site_label
 _atom_site_symmetry_multiplicity
 _atom_site_fract_x
 _atom_site_fract_y
 _atom_site_fract_z
 _atom_site_occupancy
  Na  Na0  1  0.49999957  0.50000009  0.16583808  1
  Na  Na1  1  -0.00000004  -0.00000036  0.66584462  1
  Si  Si2  1  -0.00001301  -0.00000351  0.03575281  1
  Si  Si3  1  0.49999176  0.49999087  0.53575286  1
  Cl  Cl4  1  0.00000919  0.49999901  0.53287838  1
  Cl  Cl5  1  0.49999911  0.00001045  0.53287841  1
  Cl  Cl6  1  0.50001483  -0.00000037  0.03287695  1
  Cl  Cl7  1  -0.00000141  0.50000382  0.03287696  1
