# generated using pymatgen
data_LiSi2N
_symmetry_space_group_name_H-M   'P 1'
_cell_length_a   3.94294270
_cell_length_b   3.94293537
_cell_length_c   6.45758560
_cell_angle_alpha   89.99959299
_cell_angle_beta   89.99958562
_cell_angle_gamma   90.00001894
_symmetry_Int_Tables_number   1
_chemical_formula_structural   LiSi2N
_chemical_formula_sum   'Li2 Si4 N2'
_cell_volume   100.39458665
_cell_formula_units_Z   2
loop_
 _symmetry_equiv_pos_site_id
 _symmetry_equiv_pos_as_xyz
  1  'x, y, z'
loop_
 _atom_site_type_symbol
 _atom_site_label
 _atom_site_symmetry_multiplicity
 _atom_site_fract_x
 _atom_site_fract_y
 _atom_site_fract_z
 _atom_site_occupancy
  Li  Li0  1  -0.00000293  0.49999710  0.47658015  1
  Li  Li1  1  0.50000337  0.00000328  0.52342357  1
  Si  Si2  1  0.49986997  0.49998076  0.18987514  1
  Si  Si3  1  -0.00001958  -0.00012787  0.18987542  1
  Si  Si4  1  0.50001973  0.50012971  0.81012240  1
  Si  Si5  1  0.00013212  0.00001937  0.81012268  1
  N  N6  1  0.50016640  0.00016364  0.22092039  1
  N  N7  1  -0.00016907  0.49983400  -0.22091974  1
