# generated using pymatgen
data_NaIO
_symmetry_space_group_name_H-M   'P 1'
_cell_length_a   4.62038929
_cell_length_b   8.37713168
_cell_length_c   8.16400563
_cell_angle_alpha   90.00000244
_cell_angle_beta   90.00006616
_cell_angle_gamma   90.00023319
_symmetry_Int_Tables_number   1
_chemical_formula_structural   NaIO
_chemical_formula_sum   'Na4 I4 O4'
_cell_volume   315.99281385
_cell_formula_units_Z   4
loop_
 _symmetry_equiv_pos_site_id
 _symmetry_equiv_pos_as_xyz
  1  'x, y, z'
loop_
 _atom_site_type_symbol
 _atom_site_label
 _atom_site_symmetry_multiplicity
 _atom_site_fract_x
 _atom_site_fract_y
 _atom_site_fract_z
 _atom_site_occupancy
  Na  Na0  1  -0.00000001  0.50000000  0.49999991  1
  Na  Na1  1  0.50000000  -0.00000002  0.49999990  1
  Na  Na2  1  0.49999998  0.49999998  -0.00000010  1
  Na  Na3  1  -0.00000001  -0.00000000  -0.00000008  1
  I  I4  1  0.75000033  0.24999718  0.75000058  1
  I  I5  1  0.24999974  0.24999718  0.25000047  1
  I  I6  1  0.24999967  0.75000314  0.75000067  1
  I  I7  1  0.75000033  0.75000314  0.25000038  1
  O  O8  1  -0.00000002  0.49999995  -0.00000046  1
  O  O9  1  0.49999999  0.49999973  0.49999955  1
  O  O10  1  0.49999999  -0.00000021  -0.00000042  1
  O  O11  1  0.00000000  -0.00000008  0.49999959  1
