# generated using pymatgen
data_Na2IBr
_symmetry_space_group_name_H-M   'P 1'
_cell_length_a   7.27854968
_cell_length_b   4.46368470
_cell_length_c   7.52581834
_cell_angle_alpha   89.99999781
_cell_angle_beta   89.99972671
_cell_angle_gamma   90.00000074
_symmetry_Int_Tables_number   1
_chemical_formula_structural   Na2IBr
_chemical_formula_sum   'Na4 I2 Br2'
_cell_volume   244.50744754
_cell_formula_units_Z   2
loop_
 _symmetry_equiv_pos_site_id
 _symmetry_equiv_pos_as_xyz
  1  'x, y, z'
loop_
 _atom_site_type_symbol
 _atom_site_label
 _atom_site_symmetry_multiplicity
 _atom_site_fract_x
 _atom_site_fract_y
 _atom_site_fract_z
 _atom_site_occupancy
  Na  Na0  1  0.53302293  -0.00000002  0.74362627  1
  Na  Na1  1  -0.00175687  0.50000002  0.75634089  1
  Na  Na2  1  0.53301536  0.00000002  0.25637572  1
  Na  Na3  1  -0.00176296  0.49999999  0.24366266  1
  I  I4  1  0.17385569  -0.00000000  0.49999720  1
  I  I5  1  0.35700114  0.50000000  -0.00000283  1
  Br  Br6  1  0.68090565  0.50000000  0.50000084  1
  Br  Br7  1  -0.14928094  -0.00000000  -0.00000075  1
