# generated using pymatgen
data_Li2BrCl7
_symmetry_space_group_name_H-M   'P 1'
_cell_length_a   7.03357556
_cell_length_b   7.29965472
_cell_length_c   6.72034914
_cell_angle_alpha   85.78733602
_cell_angle_beta   82.48590906
_cell_angle_gamma   123.62584516
_symmetry_Int_Tables_number   1
_chemical_formula_structural   Li2BrCl7
_chemical_formula_sum   'Li2 Br1 Cl7'
_cell_volume   280.35606507
_cell_formula_units_Z   1
loop_
 _symmetry_equiv_pos_site_id
 _symmetry_equiv_pos_as_xyz
  1  'x, y, z'
loop_
 _atom_site_type_symbol
 _atom_site_label
 _atom_site_symmetry_multiplicity
 _atom_site_fract_x
 _atom_site_fract_y
 _atom_site_fract_z
 _atom_site_occupancy
  Li  Li0  1  0.24687902  0.27066074  0.47704570  1
  Li  Li1  1  -0.04162187  -0.15127914  0.00360771  1
  Br  Br2  1  0.34795513  0.54165251  -0.00849261  1
  Cl  Cl3  1  0.55236625  0.16134596  0.01313517  1
  Cl  Cl4  1  0.12745606  0.45217592  0.73371158  1
  Cl  Cl5  1  0.30296797  0.04616968  0.73240900  1
  Cl  Cl6  1  0.58018470  0.62886269  0.25780851  1
  Cl  Cl7  1  0.16436409  -0.04236695  0.28221921  1
  Cl  Cl8  1  0.00501037  0.34408923  0.26045944  1
  Cl  Cl9  1  0.71443828  0.74868935  0.74809629  1
