# generated using pymatgen
data_Li5Br2Cl
_symmetry_space_group_name_H-M   'P 1'
_cell_length_a   4.52446137
_cell_length_b   4.52445631
_cell_length_c   7.99957949
_cell_angle_alpha   90.00000260
_cell_angle_beta   89.99999977
_cell_angle_gamma   90.00000000
_symmetry_Int_Tables_number   1
_chemical_formula_structural   Li5Br2Cl
_chemical_formula_sum   'Li5 Br2 Cl1'
_cell_volume   163.75721427
_cell_formula_units_Z   1
loop_
 _symmetry_equiv_pos_site_id
 _symmetry_equiv_pos_as_xyz
  1  'x, y, z'
loop_
 _atom_site_type_symbol
 _atom_site_label
 _atom_site_symmetry_multiplicity
 _atom_site_fract_x
 _atom_site_fract_y
 _atom_site_fract_z
 _atom_site_occupancy
  Li  Li0  1  0.00000013  0.00000019  0.14575526  1
  Li  Li1  1  0.49999997  -0.00000012  0.43219757  1
  Li  Li2  1  -0.00000009  0.49999997  0.43219686  1
  Li  Li3  1  0.50000007  0.00000003  0.88501090  1
  Li  Li4  1  0.00000003  0.50000009  0.88501055  1
  Br  Br5  1  -0.00000001  -0.00000002  0.55178966  1
  Br  Br6  1  0.49999989  0.49999986  0.27416348  1
  Cl  Cl7  1  0.50000000  0.50000000  0.76190543  1
