# generated using pymatgen
data_Na2IN3
_symmetry_space_group_name_H-M   'P 1'
_cell_length_a   5.81891740
_cell_length_b   11.65900465
_cell_length_c   6.13998330
_cell_angle_alpha   90.00093041
_cell_angle_beta   90.00170663
_cell_angle_gamma   89.99888082
_symmetry_Int_Tables_number   1
_chemical_formula_structural   Na2IN3
_chemical_formula_sum   'Na8 I4 N12'
_cell_volume   416.55356701
_cell_formula_units_Z   4
loop_
 _symmetry_equiv_pos_site_id
 _symmetry_equiv_pos_as_xyz
  1  'x, y, z'
loop_
 _atom_site_type_symbol
 _atom_site_label
 _atom_site_symmetry_multiplicity
 _atom_site_fract_x
 _atom_site_fract_y
 _atom_site_fract_z
 _atom_site_occupancy
  Na  Na0  1  0.83426164  0.65925882  -0.01129149  1
  Na  Na1  1  0.81446945  0.00224372  -0.00999123  1
  Na  Na2  1  0.33424591  0.84073568  -0.01129837  1
  Na  Na3  1  0.31446482  0.49774718  -0.00996005  1
  Na  Na4  1  0.66573317  0.15926439  0.48870957  1
  Na  Na5  1  0.68553313  0.50226144  0.49002820  1
  Na  Na6  1  0.16573685  0.34074376  0.48872329  1
  Na  Na7  1  0.18554424  -0.00224535  0.49001492  1
  I  I8  1  0.19906688  0.66541395  0.46198553  1
  I  I9  1  0.69905024  0.83460567  0.46194722  1
  I  I10  1  0.30093932  0.16538614  -0.03803706  1
  I  I11  1  -0.19905519  0.33459160  -0.03800424  1
  N  N12  1  0.20474496  0.67014721  0.16166789  1
  N  N13  1  0.28486535  0.53146135  0.60306983  1
  N  N14  1  0.37519594  0.80498201  0.59003462  1
  N  N15  1  0.70476482  0.82983384  0.16160123  1
  N  N16  1  0.78488008  0.96856966  0.60306439  1
  N  N17  1  0.87524262  0.69499050  0.59006132  1
  N  N18  1  0.29523127  0.17017399  0.66164787  1
  N  N19  1  0.21511816  0.03144205  0.10303659  1
  N  N20  1  0.12479665  0.30499525  0.09007475  1
  N  N21  1  -0.20476192  0.32985510  0.66168937  1
  N  N22  1  0.71514687  0.46853891  0.10308337  1
  N  N23  1  -0.37521528  0.19500312  0.09005404  1
