# generated using pymatgen
data_Li2CCl6
_symmetry_space_group_name_H-M   'P 1'
_cell_length_a   12.57939830
_cell_length_b   7.77525949
_cell_length_c   8.70510530
_cell_angle_alpha   93.54483262
_cell_angle_beta   90.14847763
_cell_angle_gamma   89.07106327
_symmetry_Int_Tables_number   1
_chemical_formula_structural   Li2CCl6
_chemical_formula_sum   'Li8 C4 Cl24'
_cell_volume   849.68790313
_cell_formula_units_Z   4
loop_
 _symmetry_equiv_pos_site_id
 _symmetry_equiv_pos_as_xyz
  1  'x, y, z'
loop_
 _atom_site_type_symbol
 _atom_site_label
 _atom_site_symmetry_multiplicity
 _atom_site_fract_x
 _atom_site_fract_y
 _atom_site_fract_z
 _atom_site_occupancy
  Li  Li0  1  0.84984583  0.73137548  0.78408989  1
  Li  Li1  1  0.74175869  0.14227120  0.00811876  1
  Li  Li2  1  0.31670659  0.33074086  0.97890886  1
  Li  Li3  1  0.16692980  0.73971646  0.79015681  1
  Li  Li4  1  0.71383049  0.38955272  0.51168777  1
  Li  Li5  1  0.77046727  0.63180039  0.23700678  1
  Li  Li6  1  0.27394319  0.59404108  0.27666917  1
  Li  Li7  1  0.30253652  0.36917619  0.54602873  1
  C  C8  1  0.41338677  0.09454042  0.99450196  1
  C  C9  1  -0.06512494  0.49366213  0.83916510  1
  C  C10  1  0.45099802  0.62226128  0.30567708  1
  C  C11  1  0.02210514  0.00423661  0.32050415  1
  Cl  Cl12  1  0.76715992  0.84021667  0.03770307  1
  Cl  Cl13  1  0.93758246  0.45506128  0.03117696  1
  Cl  Cl14  1  0.53318798  0.01207058  -0.06862239  1
  Cl  Cl15  1  0.72550946  0.33229656  0.23135025  1
  Cl  Cl16  1  0.27966744  0.29075084  0.27675815  1
  Cl  Cl17  1  0.33742502  -0.06907746  0.05180160  1
  Cl  Cl18  1  0.02908556  0.36713018  -0.25371141  1
  Cl  Cl19  1  0.21097687  0.59428280  0.01199061  1
  Cl  Cl20  1  0.76551803  0.24679407  0.74760604  1
  Cl  Cl21  1  0.90844921  0.04037648  0.41406753  1
  Cl  Cl22  1  0.54934194  0.71189307  0.20806898  1
  Cl  Cl23  1  0.75303834  0.69672173  0.52816210  1
  Cl  Cl24  1  0.25662463  0.66944901  0.56101232  1
  Cl  Cl25  1  0.50001060  0.51824838  0.45759977  1
  Cl  Cl26  1  0.12946190  -0.04518547  0.41860291  1
  Cl  Cl27  1  0.26152325  0.16838277  0.73156360  1
  Cl  Cl28  1  0.00846835  -0.10987593  0.79848739  1
  Cl  Cl29  1  0.02436997  -0.00185889  0.12951033  1
  Cl  Cl30  1  0.44347522  0.53934590  0.85939040  1
  Cl  Cl31  1  0.59359731  0.41785438  0.80984859  1
  Cl  Cl32  1  0.43280433  0.10875266  0.57586279  1
  Cl  Cl33  1  0.57240223  0.09537069  0.43962295  1
  Cl  Cl34  1  0.94060000  0.55442950  0.42212691  1
  Cl  Cl35  1  0.08233665  0.42319538  0.34581802  1
