# generated using pymatgen
data_Na3(S12Cl)2
_symmetry_space_group_name_H-M   'P 1'
_cell_length_a   9.40405781
_cell_length_b   9.40405990
_cell_length_c   9.40405559
_cell_angle_alpha   90.00002268
_cell_angle_beta   90.00002284
_cell_angle_gamma   89.99999942
_symmetry_Int_Tables_number   1
_chemical_formula_structural   Na3(S12Cl)2
_chemical_formula_sum   'Na3 S24 Cl2'
_cell_volume   831.66009667
_cell_formula_units_Z   1
loop_
 _symmetry_equiv_pos_site_id
 _symmetry_equiv_pos_as_xyz
  1  'x, y, z'
loop_
 _atom_site_type_symbol
 _atom_site_label
 _atom_site_symmetry_multiplicity
 _atom_site_fract_x
 _atom_site_fract_y
 _atom_site_fract_z
 _atom_site_occupancy
  Na  Na0  1  0.50000027  0.49999966  0.00000009  1
  Na  Na1  1  0.50000020  0.00000022  0.49999975  1
  Na  Na2  1  -0.00000023  0.49999972  0.49999983  1
  S  S3  1  0.14614498  0.14618212  0.39857147  1
  S  S4  1  0.85381765  0.14614468  0.39857133  1
  S  S5  1  0.85385505  0.85381787  0.39857124  1
  S  S6  1  0.14618216  0.85385508  0.39857008  1
  S  S7  1  0.14614503  0.60142936  0.14618207  1
  S  S8  1  0.85381815  0.60142867  0.14614515  1
  S  S9  1  0.85385520  0.60142939  0.85381828  1
  S  S10  1  0.14618173  0.60142957  0.85385513  1
  S  S11  1  0.39857094  0.14614472  0.14618182  1
  S  S12  1  0.39857086  0.85381820  0.14614483  1
  S  S13  1  0.39857027  0.85385497  0.85381786  1
  S  S14  1  0.39857118  0.14618185  0.85385476  1
  S  S15  1  0.85381818  0.85385503  0.60142897  1
  S  S16  1  0.85385523  0.14618204  0.60142887  1
  S  S17  1  0.14618179  0.14614490  0.60142888  1
  S  S18  1  0.14614491  0.85381815  0.60143014  1
  S  S19  1  0.85381751  0.39857123  0.85385496  1
  S  S20  1  0.85385515  0.39857132  0.14618209  1
  S  S21  1  0.14618242  0.39857077  0.14614466  1
  S  S22  1  0.14614511  0.39857104  0.85381765  1
  S  S23  1  0.60142851  0.14618244  0.14614490  1
  S  S24  1  0.60142888  0.14614483  0.85381802  1
  S  S25  1  0.60142979  0.85381772  0.85385530  1
  S  S26  1  0.60142883  0.85385493  0.14618220  1
  Cl  Cl27  1  0.00000014  -0.00000045  -0.00000037  1
  Cl  Cl28  1  0.50000013  0.49999996  0.50000003  1
