# generated using pymatgen
data_KPI2
_symmetry_space_group_name_H-M   'P 1'
_cell_length_a   11.31155029
_cell_length_b   12.35945560
_cell_length_c   4.97405884
_cell_angle_alpha   74.93282797
_cell_angle_beta   107.26239507
_cell_angle_gamma   127.73021925
_symmetry_Int_Tables_number   1
_chemical_formula_structural   KPI2
_chemical_formula_sum   'K3 P3 I6'
_cell_volume   522.38147403
_cell_formula_units_Z   3
loop_
 _symmetry_equiv_pos_site_id
 _symmetry_equiv_pos_as_xyz
  1  'x, y, z'
loop_
 _atom_site_type_symbol
 _atom_site_label
 _atom_site_symmetry_multiplicity
 _atom_site_fract_x
 _atom_site_fract_y
 _atom_site_fract_z
 _atom_site_occupancy
  K  K0  1  0.60885652  0.12336770  0.23414970  1
  K  K1  1  0.05527622  0.55577366  0.65862190  1
  K  K2  1  0.25854367  0.32055878  -0.04883433  1
  P  P3  1  0.04446882  -0.04499938  0.80957129  1
  P  P4  1  -0.01836248  -0.01203448  0.37398958  1
  P  P5  1  0.86433652  0.82573800  0.09601038  1
  I  I6  1  0.74023685  0.57879830  0.34468349  1
  I  I7  1  0.62543275  0.77568995  0.75784502  1
  I  I8  1  0.28715053  0.57027727  0.31904817  1
  I  I9  1  0.48599280  0.26475354  0.58278529  1
  I  I10  1  0.17506747  0.82871749  0.02667040  1
  I  I11  1  0.87300034  0.21335918  -0.15454091  1
