# generated using pymatgen
data_NaBr3O
_symmetry_space_group_name_H-M   'P 1'
_cell_length_a   8.49077832
_cell_length_b   5.68779762
_cell_length_c   7.80999004
_cell_angle_alpha   90.00217561
_cell_angle_beta   89.99836036
_cell_angle_gamma   127.93613404
_symmetry_Int_Tables_number   1
_chemical_formula_structural   NaBr3O
_chemical_formula_sum   'Na2 Br6 O2'
_cell_volume   297.47607603
_cell_formula_units_Z   2
loop_
 _symmetry_equiv_pos_site_id
 _symmetry_equiv_pos_as_xyz
  1  'x, y, z'
loop_
 _atom_site_type_symbol
 _atom_site_label
 _atom_site_symmetry_multiplicity
 _atom_site_fract_x
 _atom_site_fract_y
 _atom_site_fract_z
 _atom_site_occupancy
  Na  Na0  1  0.49469277  -0.01504898  0.46878297  1
  Na  Na1  1  0.50530655  0.01503448  0.96884021  1
  Br  Br2  1  0.72404216  -0.25699437  0.71930387  1
  Br  Br3  1  -0.08460427  0.44386349  0.71835563  1
  Br  Br4  1  0.23425978  -0.01376936  0.71790918  1
  Br  Br5  1  0.27595945  0.25693077  0.21921495  1
  Br  Br6  1  0.76569009  0.01372452  0.21793451  1
  Br  Br7  1  0.08465990  0.55633552  0.21840819  1
  O  O8  1  0.64828719  -0.00751385  0.71911390  1
  O  O9  1  0.35170638  0.00743777  0.21921910  1
