# generated using pymatgen
data_Na2PI3
_symmetry_space_group_name_H-M   'P 1'
_cell_length_a   8.09935743
_cell_length_b   7.79527229
_cell_length_c   4.43866484
_cell_angle_alpha   89.55836229
_cell_angle_beta   89.54796896
_cell_angle_gamma   121.61930963
_symmetry_Int_Tables_number   1
_chemical_formula_structural   Na2PI3
_chemical_formula_sum   'Na2 P1 I3'
_cell_volume   238.61018610
_cell_formula_units_Z   1
loop_
 _symmetry_equiv_pos_site_id
 _symmetry_equiv_pos_as_xyz
  1  'x, y, z'
loop_
 _atom_site_type_symbol
 _atom_site_label
 _atom_site_symmetry_multiplicity
 _atom_site_fract_x
 _atom_site_fract_y
 _atom_site_fract_z
 _atom_site_occupancy
  Na  Na0  1  0.72418435  0.48653567  0.59037487  1
  Na  Na1  1  0.23842494  0.51524553  0.59203561  1
  P  P2  1  -0.06867183  -0.00158783  0.45168274  1
  I  I3  1  0.65655672  -0.00133328  -0.31912970  1
  I  I4  1  0.40152314  0.35500956  0.09670652  1
  I  I5  1  0.04798269  0.64613035  0.08832998  1
