# generated using pymatgen
data_Na2ICl3
_symmetry_space_group_name_H-M   'P 1'
_cell_length_a   7.49965434
_cell_length_b   7.49965442
_cell_length_c   6.64944192
_cell_angle_alpha   90.00121721
_cell_angle_beta   90.00137222
_cell_angle_gamma   120.05088029
_symmetry_Int_Tables_number   1
_chemical_formula_structural   Na2ICl3
_chemical_formula_sum   'Na4 I2 Cl6'
_cell_volume   323.72439972
_cell_formula_units_Z   2
loop_
 _symmetry_equiv_pos_site_id
 _symmetry_equiv_pos_as_xyz
  1  'x, y, z'
loop_
 _atom_site_type_symbol
 _atom_site_label
 _atom_site_symmetry_multiplicity
 _atom_site_fract_x
 _atom_site_fract_y
 _atom_site_fract_z
 _atom_site_occupancy
  Na  Na0  1  0.33330176  0.66669819  0.25000000  1
  Na  Na1  1  0.66669887  0.33330110  0.75000000  1
  Na  Na2  1  0.33330112  0.66669890  0.75000000  1
  Na  Na3  1  0.66669824  0.33330180  0.25000000  1
  I  I4  1  0.00000000  -0.00000000  0.25000006  1
  I  I5  1  -0.00000000  0.00000001  0.74999994  1
  Cl  Cl6  1  0.39930310  0.00002846  0.49999830  1
  Cl  Cl7  1  -0.00002846  0.60069692  0.00000139  1
  Cl  Cl8  1  0.00002846  0.39930311  0.49999861  1
  Cl  Cl9  1  0.60069692  -0.00002846  0.00000170  1
  Cl  Cl10  1  0.60083306  0.60083306  0.50000655  1
  Cl  Cl11  1  0.39916692  0.39916692  -0.00000655  1
