# generated using pymatgen
data_K2Br5N4
_symmetry_space_group_name_H-M   'P 1'
_cell_length_a   7.42221195
_cell_length_b   7.42544426
_cell_length_c   9.48873834
_cell_angle_alpha   92.72066591
_cell_angle_beta   92.55562264
_cell_angle_gamma   137.57798278
_symmetry_Int_Tables_number   1
_chemical_formula_structural   K2Br5N4
_chemical_formula_sum   'K2 Br5 N4'
_cell_volume   349.91130372
_cell_formula_units_Z   1
loop_
 _symmetry_equiv_pos_site_id
 _symmetry_equiv_pos_as_xyz
  1  'x, y, z'
loop_
 _atom_site_type_symbol
 _atom_site_label
 _atom_site_symmetry_multiplicity
 _atom_site_fract_x
 _atom_site_fract_y
 _atom_site_fract_z
 _atom_site_occupancy
  K  K0  1  0.68915077  0.40088487  0.47560510  1
  K  K1  1  0.39985472  0.68982337  0.47654640  1
  Br  Br2  1  -0.00197841  -0.00466661  0.17600889  1
  Br  Br3  1  0.51207547  -0.00362849  0.19109499  1
  Br  Br4  1  -0.00281761  0.51076004  0.19071529  1
  Br  Br5  1  0.50115349  0.50152936  0.20071845  1
  Br  Br6  1  -0.11554085  -0.11493197  0.85740138  1
  N  N7  1  0.02448377  0.02492618  0.58745290  1
  N  N8  1  0.00954201  0.17727398  0.55540481  1
  N  N9  1  0.80742095  0.80843298  0.65684186  1
  N  N10  1  0.17665569  0.00959629  0.55529347  1
