# generated using pymatgen
data_K2Be3Br11
_symmetry_space_group_name_H-M   'P 1'
_cell_length_a   7.35378466
_cell_length_b   7.35374612
_cell_length_c   7.35387017
_cell_angle_alpha   90.00000566
_cell_angle_beta   89.99999618
_cell_angle_gamma   90.00001609
_symmetry_Int_Tables_number   1
_chemical_formula_structural   K2Be3Br11
_chemical_formula_sum   'K2 Be3 Br11'
_cell_volume   397.68160160
_cell_formula_units_Z   1
loop_
 _symmetry_equiv_pos_site_id
 _symmetry_equiv_pos_as_xyz
  1  'x, y, z'
loop_
 _atom_site_type_symbol
 _atom_site_label
 _atom_site_symmetry_multiplicity
 _atom_site_fract_x
 _atom_site_fract_y
 _atom_site_fract_z
 _atom_site_occupancy
  K  K0  1  0.00000001  -0.00000001  0.00000000  1
  K  K1  1  0.49999997  0.49999998  0.50000001  1
  Be  Be2  1  0.50000002  -0.00000000  -0.00000004  1
  Be  Be3  1  -0.00000003  -0.00000000  0.49999999  1
  Be  Be4  1  -0.00000000  0.50000001  0.00000000  1
  Br  Br5  1  0.76476829  0.23523207  0.76477142  1
  Br  Br6  1  0.23523173  0.76476794  0.76477145  1
  Br  Br7  1  0.76476831  0.76476793  0.23522862  1
  Br  Br8  1  0.23523170  0.76476793  0.23522857  1
  Br  Br9  1  0.23523171  0.23523208  0.76477138  1
  Br  Br10  1  0.76476828  0.23523207  0.23522857  1
  Br  Br11  1  0.76476831  0.76476795  0.76477144  1
  Br  Br12  1  0.23523169  0.23523205  0.23522858  1
  Br  Br13  1  0.50000001  0.50000000  -0.00000001  1
  Br  Br14  1  0.50000001  0.00000000  0.50000000  1
  Br  Br15  1  -0.00000000  0.50000000  0.50000001  1
