# generated using pymatgen
data_Li7(BeCl4)4
_symmetry_space_group_name_H-M   'P 1'
_cell_length_a   8.19749064
_cell_length_b   8.19747567
_cell_length_c   8.19739286
_cell_angle_alpha   89.99802368
_cell_angle_beta   90.00442582
_cell_angle_gamma   89.99165284
_symmetry_Int_Tables_number   1
_chemical_formula_structural   Li7(BeCl4)4
_chemical_formula_sum   'Li7 Be4 Cl16'
_cell_volume   550.85438255
_cell_formula_units_Z   1
loop_
 _symmetry_equiv_pos_site_id
 _symmetry_equiv_pos_as_xyz
  1  'x, y, z'
loop_
 _atom_site_type_symbol
 _atom_site_label
 _atom_site_symmetry_multiplicity
 _atom_site_fract_x
 _atom_site_fract_y
 _atom_site_fract_z
 _atom_site_occupancy
  Li  Li0  1  0.33398293  0.33397694  0.33399080  1
  Li  Li1  1  0.49999826  0.00001765  -0.00003086  1
  Li  Li2  1  0.66603093  0.66602422  0.33398034  1
  Li  Li3  1  -0.00000748  0.00001513  0.50000023  1
  Li  Li4  1  0.66597409  0.33402227  0.66598336  1
  Li  Li5  1  -0.00000647  0.49999832  -0.00003752  1
  Li  Li6  1  0.33400248  0.66599511  0.66601068  1
  Be  Be7  1  -0.00000016  -0.00000176  0.00000268  1
  Be  Be8  1  0.50000774  -0.00001005  0.50003230  1
  Be  Be9  1  0.00000421  0.49998318  0.50003369  1
  Be  Be10  1  0.50000834  0.49998244  0.00002076  1
  Cl  Cl11  1  0.63739347  0.36261739  0.36256526  1
  Cl  Cl12  1  0.36261344  0.63739778  0.36258742  1
  Cl  Cl13  1  0.36256558  0.36259341  0.63738658  1
  Cl  Cl14  1  0.63740987  0.63743521  0.63737760  1
  Cl  Cl15  1  0.31723955  0.03201974  0.31728344  1
  Cl  Cl16  1  0.31727392  0.31722751  0.03204249  1
  Cl  Cl17  1  0.03203239  0.31726334  0.31724957  1
  Cl  Cl18  1  -0.03201533  0.68272496  0.31724980  1
  Cl  Cl19  1  0.68273644  0.68275787  0.03203320  1
  Cl  Cl20  1  0.68276897  -0.03202668  0.31728037  1
  Cl  Cl21  1  0.68272199  0.31723706  -0.03204932  1
  Cl  Cl22  1  0.68275793  0.03206057  0.68273636  1
  Cl  Cl23  1  -0.03206630  0.31727259  0.68277246  1
  Cl  Cl24  1  0.31724396  -0.03205377  0.68274220  1
  Cl  Cl25  1  0.03204919  0.68271770  0.68278073  1
  Cl  Cl26  1  0.31728010  0.68275186  -0.03202460  1
