# generated using pymatgen
data_Na8S3O5
_symmetry_space_group_name_H-M   'P 1'
_cell_length_a   6.55850989
_cell_length_b   6.55914177
_cell_length_c   6.55892154
_cell_angle_alpha   89.99778983
_cell_angle_beta   90.00146299
_cell_angle_gamma   90.00144393
_symmetry_Int_Tables_number   1
_chemical_formula_structural   Na8S3O5
_chemical_formula_sum   'Na8 S3 O5'
_cell_volume   282.15297325
_cell_formula_units_Z   1
loop_
 _symmetry_equiv_pos_site_id
 _symmetry_equiv_pos_as_xyz
  1  'x, y, z'
loop_
 _atom_site_type_symbol
 _atom_site_label
 _atom_site_symmetry_multiplicity
 _atom_site_fract_x
 _atom_site_fract_y
 _atom_site_fract_z
 _atom_site_occupancy
  Na  Na0  1  -0.00004346  -0.00002179  -0.00001536  1
  Na  Na1  1  0.00003043  0.00001269  0.49998517  1
  Na  Na2  1  0.00003151  0.49997216  0.00000996  1
  Na  Na3  1  0.49997350  0.00001301  0.00000872  1
  Na  Na4  1  0.69013155  0.69013557  0.69013291  1
  Na  Na5  1  0.69012968  0.30987226  0.30987931  1
  Na  Na6  1  0.30988446  0.30986481  0.69013980  1
  Na  Na7  1  0.30988060  0.69014689  0.30986773  1
  S  S8  1  -0.00000418  0.50002012  0.50001660  1
  S  S9  1  0.50000696  0.50001928  0.00000234  1
  S  S10  1  0.50000990  -0.00000215  0.50001928  1
  O  O11  1  0.19191109  0.19191120  0.19191689  1
  O  O12  1  0.19194326  0.80805187  0.80804798  1
  O  O13  1  0.80805700  0.80805126  0.19194678  1
  O  O14  1  0.80804778  0.19194328  0.80803939  1
  O  O15  1  0.50000992  0.50000953  0.50000248  1
