# generated using pymatgen
data_Li2CS4
_symmetry_space_group_name_H-M   'P 1'
_cell_length_a   6.32328868
_cell_length_b   6.80638012
_cell_length_c   6.82176676
_cell_angle_alpha   90.00040043
_cell_angle_beta   89.99842767
_cell_angle_gamma   89.91591629
_symmetry_Int_Tables_number   1
_chemical_formula_structural   Li2CS4
_chemical_formula_sum   'Li4 C2 S8'
_cell_volume   293.59970027
_cell_formula_units_Z   2
loop_
 _symmetry_equiv_pos_site_id
 _symmetry_equiv_pos_as_xyz
  1  'x, y, z'
loop_
 _atom_site_type_symbol
 _atom_site_label
 _atom_site_symmetry_multiplicity
 _atom_site_fract_x
 _atom_site_fract_y
 _atom_site_fract_z
 _atom_site_occupancy
  Li  Li0  1  0.71298952  0.00578283  0.27960425  1
  Li  Li1  1  0.71296988  0.00580383  0.72043096  1
  Li  Li2  1  -0.06996964  0.50637176  0.77914654  1
  Li  Li3  1  -0.06999592  0.50635006  0.22081927  1
  C  C4  1  0.20704608  -0.07495369  0.50000520  1
  C  C5  1  0.43601606  0.42643565  -0.00000498  1
  S  S6  1  0.65954669  0.28758425  -0.00000593  1
  S  S7  1  -0.24527904  0.76376558  0.00000863  1
  S  S8  1  0.44251480  0.67878619  0.00001255  1
  S  S9  1  0.18539430  0.33434573  -0.00001793  1
  S  S10  1  0.45790348  0.83293568  0.50001768  1
  S  S11  1  0.88744962  0.26299714  0.49999141  1
  S  S12  1  0.98365823  0.78642853  0.50000841  1
  S  S13  1  0.19975594  0.17736646  0.49998393  1
