# generated using pymatgen
data_KSCl4
_symmetry_space_group_name_H-M   'P 1'
_cell_length_a   7.70043615
_cell_length_b   7.69558017
_cell_length_c   13.66982098
_cell_angle_alpha   90.29773383
_cell_angle_beta   90.11648838
_cell_angle_gamma   90.02597284
_symmetry_Int_Tables_number   1
_chemical_formula_structural   KSCl4
_chemical_formula_sum   'K4 S4 Cl16'
_cell_volume   810.05164886
_cell_formula_units_Z   4
loop_
 _symmetry_equiv_pos_site_id
 _symmetry_equiv_pos_as_xyz
  1  'x, y, z'
loop_
 _atom_site_type_symbol
 _atom_site_label
 _atom_site_symmetry_multiplicity
 _atom_site_fract_x
 _atom_site_fract_y
 _atom_site_fract_z
 _atom_site_occupancy
  K  K0  1  0.00656660  0.49884541  0.18746537  1
  K  K1  1  0.49351532  -0.00075936  0.18737492  1
  K  K2  1  0.50713540  -0.00137036  0.68739881  1
  K  K3  1  -0.00722822  0.49919268  0.68728300  1
  S  S4  1  0.52512085  0.48016644  0.18791704  1
  S  S5  1  -0.02485495  -0.01976222  0.18755471  1
  S  S6  1  0.02552261  -0.01967244  0.68772942  1
  S  S7  1  0.47453815  0.48041953  0.68776011  1
  Cl  Cl8  1  0.85392434  0.85666432  0.57095136  1
  Cl  Cl9  1  0.85565348  0.15367738  0.30421118  1
  Cl  Cl10  1  0.64505894  0.35658397  0.57106987  1
  Cl  Cl11  1  0.64505689  0.65360844  0.30454258  1
  Cl  Cl12  1  0.14573990  0.15215511  0.57152602  1
  Cl  Cl13  1  0.14727021  0.85840876  0.30378601  1
  Cl  Cl14  1  0.35333808  0.65204893  0.57145827  1
  Cl  Cl15  1  0.35355060  0.35841623  0.30403247  1
  Cl  Cl16  1  0.35303289  0.35715320  0.07120119  1
  Cl  Cl17  1  0.35553013  0.65418396  0.80433975  1
  Cl  Cl18  1  0.14620773  0.85705745  0.07100123  1
  Cl  Cl19  1  0.14511713  0.15398343  0.80433912  1
  Cl  Cl20  1  0.64562719  0.65157386  0.07156056  1
  Cl  Cl21  1  0.64649206  0.35793360  0.80388360  1
  Cl  Cl22  1  0.85383620  0.15152717  0.07123294  1
  Cl  Cl23  1  0.85424849  0.85796450  0.80391187  1
