# generated using pymatgen
data_NaPBr3
_symmetry_space_group_name_H-M   'P 1'
_cell_length_a   10.34600819
_cell_length_b   10.35074579
_cell_length_c   5.24316799
_cell_angle_alpha   88.63345609
_cell_angle_beta   91.39475550
_cell_angle_gamma   136.16706644
_symmetry_Int_Tables_number   1
_chemical_formula_structural   NaPBr3
_chemical_formula_sum   'Na2 P2 Br6'
_cell_volume   388.72970019
_cell_formula_units_Z   2
loop_
 _symmetry_equiv_pos_site_id
 _symmetry_equiv_pos_as_xyz
  1  'x, y, z'
loop_
 _atom_site_type_symbol
 _atom_site_label
 _atom_site_symmetry_multiplicity
 _atom_site_fract_x
 _atom_site_fract_y
 _atom_site_fract_z
 _atom_site_occupancy
  Na  Na0  1  0.34234036  0.86171735  0.36604319  1
  Na  Na1  1  0.86167315  0.34202127  0.87276858  1
  P  P2  1  -0.03548125  -0.02154795  -0.09495135  1
  P  P3  1  -0.02133419  -0.03486684  0.33608510  1
  Br  Br4  1  0.83597995  0.66823876  0.34211264  1
  Br  Br5  1  0.70619196  0.23540726  0.37051859  1
  Br  Br6  1  0.28356296  0.12588143  0.34751822  1
  Br  Br7  1  0.66709707  0.83475418  0.89816316  1
  Br  Br8  1  0.23549093  0.70540896  0.86808326  1
  Br  Br9  1  0.12447907  0.28298560  0.89288740  1
