# generated using pymatgen
data_NaC2I
_symmetry_space_group_name_H-M   'P 1'
_cell_length_a   6.51084791
_cell_length_b   6.51084825
_cell_length_c   6.51084807
_cell_angle_alpha   90.00002192
_cell_angle_beta   90.00001318
_cell_angle_gamma   89.99999511
_symmetry_Int_Tables_number   1
_chemical_formula_structural   NaC2I
_chemical_formula_sum   'Na4 C8 I4'
_cell_volume   276.00228993
_cell_formula_units_Z   4
loop_
 _symmetry_equiv_pos_site_id
 _symmetry_equiv_pos_as_xyz
  1  'x, y, z'
loop_
 _atom_site_type_symbol
 _atom_site_label
 _atom_site_symmetry_multiplicity
 _atom_site_fract_x
 _atom_site_fract_y
 _atom_site_fract_z
 _atom_site_occupancy
  Na  Na0  1  0.25000275  0.25000101  0.75000060  1
  Na  Na1  1  0.74999728  0.25000101  0.24999940  1
  Na  Na2  1  0.25000271  0.74999905  0.24999938  1
  Na  Na3  1  0.74999730  0.74999902  0.75000061  1
  C  C4  1  0.74999865  0.25000043  0.75000033  1
  C  C5  1  0.25000142  0.25000045  0.24999966  1
  C  C6  1  0.74999865  0.74999951  0.24999969  1
  C  C7  1  0.25000142  0.74999954  0.75000034  1
  C  C8  1  0.00000021  0.00000016  0.50000004  1
  C  C9  1  0.49999957  0.00000016  0.00000001  1
  C  C10  1  0.00000026  0.49999981  -0.00000004  1
  C  C11  1  0.49999968  0.49999980  0.50000003  1
  I  I12  1  -0.00000053  0.50000018  0.50000003  1
  I  I13  1  0.50000059  -0.00000014  0.50000003  1
  I  I14  1  0.50000056  0.50000017  -0.00000007  1
  I  I15  1  -0.00000052  -0.00000015  -0.00000007  1
