# generated using pymatgen
data_Li2Br2N3
_symmetry_space_group_name_H-M   'P 1'
_cell_length_a   5.09163690
_cell_length_b   5.09163691
_cell_length_c   11.67422837
_cell_angle_alpha   90.00002107
_cell_angle_beta   89.99994065
_cell_angle_gamma   90.00031641
_symmetry_Int_Tables_number   1
_chemical_formula_structural   Li2Br2N3
_chemical_formula_sum   'Li4 Br4 N6'
_cell_volume   302.65164324
_cell_formula_units_Z   2
loop_
 _symmetry_equiv_pos_site_id
 _symmetry_equiv_pos_as_xyz
  1  'x, y, z'
loop_
 _atom_site_type_symbol
 _atom_site_label
 _atom_site_symmetry_multiplicity
 _atom_site_fract_x
 _atom_site_fract_y
 _atom_site_fract_z
 _atom_site_occupancy
  Li  Li0  1  0.49999973  -0.00000078  0.85413173  1
  Li  Li1  1  -0.00000006  0.49999956  0.85413034  1
  Li  Li2  1  0.50000065  -0.00000097  0.20556623  1
  Li  Li3  1  0.00000261  0.50000168  0.20556333  1
  Br  Br4  1  -0.00000029  -0.00000041  0.86542087  1
  Br  Br5  1  0.49999995  0.49999921  0.86542097  1
  Br  Br6  1  0.00000095  0.00000123  0.19208081  1
  Br  Br7  1  0.50000233  0.49999939  0.19208092  1
  N  N8  1  0.00000205  -0.00000780  0.61535576  1
  N  N9  1  0.49999206  0.50000717  0.61535582  1
  N  N10  1  0.07763930  0.57763955  0.44069021  1
  N  N11  1  0.57764441  0.92235668  0.44070474  1
  N  N12  1  0.42235608  0.07764501  0.44070746  1
  N  N13  1  0.92236024  0.42236049  0.44070995  1
