# generated using pymatgen
data_Li6BBr6
_symmetry_space_group_name_H-M   'P 1'
_cell_length_a   11.23465800
_cell_length_b   11.23467765
_cell_length_c   6.97657865
_cell_angle_alpha   90.00004501
_cell_angle_beta   89.99975867
_cell_angle_gamma   120.02873877
_symmetry_Int_Tables_number   1
_chemical_formula_structural   Li6BBr6
_chemical_formula_sum   'Li12 B2 Br12'
_cell_volume   762.37344024
_cell_formula_units_Z   2
loop_
 _symmetry_equiv_pos_site_id
 _symmetry_equiv_pos_as_xyz
  1  'x, y, z'
loop_
 _atom_site_type_symbol
 _atom_site_label
 _atom_site_symmetry_multiplicity
 _atom_site_fract_x
 _atom_site_fract_y
 _atom_site_fract_z
 _atom_site_occupancy
  Li  Li0  1  0.42234346  0.84429436  0.75026115  1
  Li  Li1  1  0.42233282  0.84429714  0.24975992  1
  Li  Li2  1  0.57765509  0.15570477  0.24973957  1
  Li  Li3  1  0.57767052  0.15570059  0.75023390  1
  Li  Li4  1  0.15570194  0.57766199  0.74973917  1
  Li  Li5  1  0.15570117  0.57767884  0.25023600  1
  Li  Li6  1  0.84430015  0.42233847  0.25026014  1
  Li  Li7  1  0.84430041  0.42232014  0.74976825  1
  Li  Li8  1  0.42215567  0.57786036  0.25000005  1
  Li  Li9  1  0.42215866  0.57785996  0.74999835  1
  Li  Li10  1  0.57784164  0.42213293  0.74999525  1
  Li  Li11  1  0.57784810  0.42214385  0.24999602  1
  B  B12  1  0.00000005  0.00000020  -0.00000060  1
  B  B13  1  -0.00000003  0.00000010  0.50000048  1
  Br  Br14  1  0.27567673  0.83801157  0.00000385  1
  Br  Br15  1  0.56231107  0.83777407  0.50000158  1
  Br  Br16  1  0.72432326  0.16198932  -0.00000218  1
  Br  Br17  1  0.43768993  0.16222877  0.50000173  1
  Br  Br18  1  0.16198617  0.72431553  0.49999936  1
  Br  Br19  1  0.16221663  0.43768198  -0.00000030  1
  Br  Br20  1  0.83801174  0.27568380  0.50000140  1
  Br  Br21  1  0.83777973  0.56231664  0.00000166  1
  Br  Br22  1  0.27547025  0.43760155  0.50000210  1
  Br  Br23  1  0.56238446  0.72452335  -0.00000055  1
  Br  Br24  1  0.72452726  0.56240073  0.50000000  1
  Br  Br25  1  0.43761312  0.27547898  0.00000367  1
