# generated using pymatgen
data_Li2C2Br3
_symmetry_space_group_name_H-M   'P 1'
_cell_length_a   9.43486065
_cell_length_b   9.71764244
_cell_length_c   8.42984096
_cell_angle_alpha   93.15934452
_cell_angle_beta   93.84135485
_cell_angle_gamma   88.89601916
_symmetry_Int_Tables_number   1
_chemical_formula_structural   Li2C2Br3
_chemical_formula_sum   'Li8 C8 Br12'
_cell_volume   769.88407501
_cell_formula_units_Z   4
loop_
 _symmetry_equiv_pos_site_id
 _symmetry_equiv_pos_as_xyz
  1  'x, y, z'
loop_
 _atom_site_type_symbol
 _atom_site_label
 _atom_site_symmetry_multiplicity
 _atom_site_fract_x
 _atom_site_fract_y
 _atom_site_fract_z
 _atom_site_occupancy
  Li  Li0  1  -0.11133305  0.05417889  -0.17829525  1
  Li  Li1  1  0.23653495  0.20147198  0.39695154  1
  Li  Li2  1  0.14187822  0.80270365  -0.07592300  1
  Li  Li3  1  0.03667757  0.39786892  0.62085956  1
  Li  Li4  1  0.35247126  0.66044482  0.07375042  1
  Li  Li5  1  0.83936784  -0.16086657  0.12421402  1
  Li  Li6  1  0.63248594  -0.05669092  0.33304197  1
  Li  Li7  1  -0.08732152  0.13988135  0.44062649  1
  C  C8  1  0.14727452  0.36334502  0.27635782  1
  C  C9  1  0.91533133  0.83834482  0.88139357  1
  C  C10  1  0.23857474  0.84490696  0.16495748  1
  C  C11  1  0.10871242  0.17858696  0.59528935  1
  C  C12  1  0.29744369  0.67150236  0.81936035  1
  C  C13  1  0.79758792  0.05488851  0.22777585  1
  C  C14  1  0.77392660  0.17088038  0.63725890  1
  C  C15  1  0.66952577  0.74698271  0.23304838  1
  Br  Br16  1  -0.04901331  0.42231982  0.32803042  1
  Br  Br17  1  0.35640523  0.01402532  0.20945571  1
  Br  Br18  1  0.18497155  0.44404175  0.07600227  1
  Br  Br19  1  0.85619259  0.73880804  0.69108810  1
  Br  Br20  1  0.76952610  0.36796025  0.70658790  1
  Br  Br21  1  0.45702812  0.78527102  0.77600147  1
  Br  Br22  1  0.73154407  0.16122118  0.05509754  1
  Br  Br23  1  0.58029455  0.57367273  0.23073176  1
  Br  Br24  1  0.57641455  0.10919638  0.58941574  1
  Br  Br25  1  0.16921828  0.11189228  0.79560957  1
  Br  Br26  1  0.27178795  0.53115109  0.64132955  1
  Br  Br27  1  0.10649212  0.83201031  0.32998253  1
