# generated using pymatgen
data_Na2SiCl6
_symmetry_space_group_name_H-M   'P 1'
_cell_length_a   8.04664899
_cell_length_b   16.58091372
_cell_length_c   8.04668834
_cell_angle_alpha   90.00092846
_cell_angle_beta   90.10039229
_cell_angle_gamma   89.99937761
_symmetry_Int_Tables_number   1
_chemical_formula_structural   Na2SiCl6
_chemical_formula_sum   'Na8 Si4 Cl24'
_cell_volume   1073.59388780
_cell_formula_units_Z   4
loop_
 _symmetry_equiv_pos_site_id
 _symmetry_equiv_pos_as_xyz
  1  'x, y, z'
loop_
 _atom_site_type_symbol
 _atom_site_label
 _atom_site_symmetry_multiplicity
 _atom_site_fract_x
 _atom_site_fract_y
 _atom_site_fract_z
 _atom_site_occupancy
  Na  Na0  1  0.50194274  0.25806682  -0.02384977  1
  Na  Na1  1  0.49772789  0.74175123  -0.02252073  1
  Na  Na2  1  0.00117315  0.75818702  -0.02433397  1
  Na  Na3  1  -0.00143658  0.24138601  -0.02301568  1
  Na  Na4  1  0.50117974  0.24182051  0.47565756  1
  Na  Na5  1  0.49856067  0.75861513  0.47699195  1
  Na  Na6  1  0.00194142  0.74192917  0.47615571  1
  Na  Na7  1  -0.00227244  0.25824517  0.47747556  1
  Si  Si8  1  0.49988416  0.00021328  0.48582269  1
  Si  Si9  1  -0.00019713  0.50017848  0.48774459  1
  Si  Si10  1  0.49984949  0.49982411  0.98772651  1
  Si  Si11  1  -0.00008491  -0.00020275  0.98581853  1
  Cl  Cl12  1  0.75046225  0.75041081  0.20008448  1
  Cl  Cl13  1  0.75062379  0.25026731  0.74848290  1
  Cl  Cl14  1  0.63276262  0.92238458  0.34289815  1
  Cl  Cl15  1  0.34858789  0.93113422  0.62837725  1
  Cl  Cl16  1  0.36674293  0.07767831  0.34195073  1
  Cl  Cl17  1  0.65153317  0.06958563  0.62790235  1
  Cl  Cl18  1  0.25070917  0.25033773  0.20007628  1
  Cl  Cl19  1  0.25001194  0.75020743  0.74846478  1
  Cl  Cl20  1  0.12989368  0.42126047  0.34475320  1
  Cl  Cl21  1  0.84616092  0.43249315  0.63047491  1
  Cl  Cl22  1  0.86949354  0.57866158  0.34354118  1
  Cl  Cl23  1  0.15372053  0.56827846  0.62986880  1
  Cl  Cl24  1  0.25062447  0.74972719  0.24849087  1
  Cl  Cl25  1  0.25047091  0.24959427  0.70007664  1
  Cl  Cl26  1  0.34627872  0.56749623  0.13056507  1
  Cl  Cl27  1  0.62984892  0.57874408  0.84469597  1
  Cl  Cl28  1  0.65384916  0.43171333  0.12975418  1
  Cl  Cl29  1  0.36946336  0.42134316  0.84358541  1
  Cl  Cl30  1  0.75001581  0.24978997  0.24845600  1
  Cl  Cl31  1  0.75071258  0.74966931  0.70008133  1
  Cl  Cl32  1  0.84869214  0.06885590  0.12844824  1
  Cl  Cl33  1  0.13272030  0.07762055  0.84284337  1
  Cl  Cl34  1  0.15164309  0.93040884  0.12780475  1
  Cl  Cl35  1  0.86670988  0.92232331  0.84198352  1
