# generated using pymatgen
data_NaNCl2
_symmetry_space_group_name_H-M   'P 1'
_cell_length_a   6.52108424
_cell_length_b   6.51825430
_cell_length_c   4.34715029
_cell_angle_alpha   87.91406094
_cell_angle_beta   92.02944511
_cell_angle_gamma   102.45810801
_symmetry_Int_Tables_number   1
_chemical_formula_structural   NaNCl2
_chemical_formula_sum   'Na2 N2 Cl4'
_cell_volume   180.23800735
_cell_formula_units_Z   2
loop_
 _symmetry_equiv_pos_site_id
 _symmetry_equiv_pos_as_xyz
  1  'x, y, z'
loop_
 _atom_site_type_symbol
 _atom_site_label
 _atom_site_symmetry_multiplicity
 _atom_site_fract_x
 _atom_site_fract_y
 _atom_site_fract_z
 _atom_site_occupancy
  Na  Na0  1  0.07175381  0.52395850  0.58947096  1
  Na  Na1  1  0.47578471  -0.07195192  0.58920976  1
  N  N2  1  -0.18996258  0.18966735  0.46159048  1
  N  N3  1  0.48939534  0.51116484  0.63434360  1
  Cl  Cl4  1  0.21436970  0.78551785  0.09538661  1
  Cl  Cl5  1  0.86058230  0.13937154  0.11273178  1
  Cl  Cl6  1  0.71353348  0.63555514  0.84220746  1
  Cl  Cl7  1  0.36454325  0.28671670  0.84172602  1
