# generated using pymatgen
data_Li9I5Cl4
_symmetry_space_group_name_H-M   'P 1'
_cell_length_a   10.02984888
_cell_length_b   10.02980910
_cell_length_c   11.04971887
_cell_angle_alpha   90.00004817
_cell_angle_beta   90.00010572
_cell_angle_gamma   89.98847047
_symmetry_Int_Tables_number   1
_chemical_formula_structural   Li9I5Cl4
_chemical_formula_sum   'Li18 I10 Cl8'
_cell_volume   1111.57373594
_cell_formula_units_Z   2
loop_
 _symmetry_equiv_pos_site_id
 _symmetry_equiv_pos_as_xyz
  1  'x, y, z'
loop_
 _atom_site_type_symbol
 _atom_site_label
 _atom_site_symmetry_multiplicity
 _atom_site_fract_x
 _atom_site_fract_y
 _atom_site_fract_z
 _atom_site_occupancy
  Li  Li0  1  -0.00000178  0.00000811  -0.05099049  1
  Li  Li1  1  0.49978786  0.23468238  0.95243465  1
  Li  Li2  1  0.50020912  0.76533626  0.95240031  1
  Li  Li3  1  0.76532807  0.49978051  0.95242140  1
  Li  Li4  1  0.23466676  0.50023152  0.95241151  1
  Li  Li5  1  0.79534841  0.20546048  0.21898392  1
  Li  Li6  1  0.20545309  0.20464510  0.21898422  1
  Li  Li7  1  0.79453993  0.79535102  0.21897632  1
  Li  Li8  1  0.20465483  0.79453565  0.21896818  1
  Li  Li9  1  0.50000108  0.49999110  0.44900922  1
  Li  Li10  1  0.00021147  0.26532798  0.45243320  1
  Li  Li11  1  -0.00020673  0.73466706  0.45239859  1
  Li  Li12  1  0.73467129  0.00021645  0.45241884  1
  Li  Li13  1  0.26533197  -0.00023225  0.45241065  1
  Li  Li14  1  0.29534547  0.70546239  0.71896887  1
  Li  Li15  1  0.70546251  0.70465001  0.71897711  1
  Li  Li16  1  0.29454462  0.29535172  0.71898363  1
  Li  Li17  1  0.70464895  0.29454068  0.71898377  1
  I  I18  1  0.20958161  0.20969944  -0.03462056  1
  I  I19  1  0.79040978  0.79032012  -0.03463311  1
  I  I20  1  0.20964500  0.79046544  -0.03465086  1
  I  I21  1  0.79035603  0.20955103  -0.03462975  1
  I  I22  1  0.49999746  0.50001114  0.06464868  1
  I  I23  1  0.70959277  0.70967856  0.46536687  1
  I  I24  1  0.29041839  0.29030087  0.46537789  1
  I  I25  1  0.70964291  0.29044797  0.46537130  1
  I  I26  1  0.29035626  0.70953349  0.46534888  1
  I  I27  1  0.00000340  -0.00000910  0.56464309  1
  Cl  Cl28  1  0.20255054  0.50058335  0.74879625  1
  Cl  Cl29  1  0.79745062  0.49941791  0.74880607  1
  Cl  Cl30  1  0.49945993  0.20255280  0.74882142  1
  Cl  Cl31  1  0.50053985  0.79744866  0.74878669  1
  Cl  Cl32  1  0.70254848  0.00058159  0.24880437  1
  Cl  Cl33  1  0.29745065  -0.00058524  0.24879663  1
  Cl  Cl34  1  -0.00053928  0.70254849  0.24878583  1
  Cl  Cl35  1  0.00053869  0.29744731  0.24881862  1
