# generated using pymatgen
data_Li2Br2O
_symmetry_space_group_name_H-M   'P 1'
_cell_length_a   5.35724934
_cell_length_b   5.35709772
_cell_length_c   6.03719695
_cell_angle_alpha   90.02852005
_cell_angle_beta   90.02872455
_cell_angle_gamma   83.28145545
_symmetry_Int_Tables_number   1
_chemical_formula_structural   Li2Br2O
_chemical_formula_sum   'Li4 Br4 O2'
_cell_volume   172.07350963
_cell_formula_units_Z   2
loop_
 _symmetry_equiv_pos_site_id
 _symmetry_equiv_pos_as_xyz
  1  'x, y, z'
loop_
 _atom_site_type_symbol
 _atom_site_label
 _atom_site_symmetry_multiplicity
 _atom_site_fract_x
 _atom_site_fract_y
 _atom_site_fract_z
 _atom_site_occupancy
  Li  Li0  1  -0.08334656  0.08657684  0.24997597  1
  Li  Li1  1  0.58342992  0.41972820  0.74995824  1
  Li  Li2  1  0.58343258  0.41973045  0.25003737  1
  Li  Li3  1  -0.08334883  0.08657413  0.75002102  1
  Br  Br4  1  0.05966434  0.56284035  0.24989008  1
  Br  Br5  1  0.05965927  0.56283457  0.74989465  1
  Br  Br6  1  0.44031420  -0.05651724  0.75013372  1
  Br  Br7  1  0.44032018  -0.05651197  0.25009375  1
  O  O8  1  0.75026133  0.25317504  0.49999843  1
  O  O9  1  0.74961358  0.25281965  -0.00000324  1
