# generated using pymatgen
data_Li3Br5Cl2
_symmetry_space_group_name_H-M   'P 1'
_cell_length_a   7.29198577
_cell_length_b   12.08981551
_cell_length_c   7.77255192
_cell_angle_alpha   89.98996546
_cell_angle_beta   91.14810129
_cell_angle_gamma   89.99123934
_symmetry_Int_Tables_number   1
_chemical_formula_structural   Li3Br5Cl2
_chemical_formula_sum   'Li6 Br10 Cl4'
_cell_volume   685.08097855
_cell_formula_units_Z   2
loop_
 _symmetry_equiv_pos_site_id
 _symmetry_equiv_pos_as_xyz
  1  'x, y, z'
loop_
 _atom_site_type_symbol
 _atom_site_label
 _atom_site_symmetry_multiplicity
 _atom_site_fract_x
 _atom_site_fract_y
 _atom_site_fract_z
 _atom_site_occupancy
  Li  Li0  1  0.41564434  0.18953054  0.00465160  1
  Li  Li1  1  0.60010789  0.82544123  0.85046542  1
  Li  Li2  1  -0.09671029  0.00384077  -0.00822906  1
  Li  Li3  1  0.08454363  0.68963418  -0.00496156  1
  Li  Li4  1  0.89989418  0.32515507  0.14971805  1
  Li  Li5  1  0.59711287  0.50409505  0.00851431  1
  Br  Br6  1  0.56257764  -0.00288020  0.06329168  1
  Br  Br7  1  0.48853548  0.88752260  0.36225996  1
  Br  Br8  1  0.51894194  0.07620892  0.55652890  1
  Br  Br9  1  -0.06174484  0.83853345  -0.17859890  1
  Br  Br10  1  0.07540338  0.17357309  0.00807206  1
  Br  Br11  1  -0.06198586  0.49715666  -0.06293001  1
  Br  Br12  1  0.01132245  0.38778263  0.63775093  1
  Br  Br13  1  -0.01960846  0.57628349  0.44347754  1
  Br  Br14  1  0.42489330  0.67377036  -0.00833408  1
  Br  Br15  1  0.56189122  0.33850557  0.17823175  1
  Cl  Cl16  1  0.07550756  0.27798914  0.40352034  1
  Cl  Cl17  1  -0.04746992  0.72988673  0.27158677  1
  Cl  Cl18  1  0.54672526  0.22987960  0.72807739  1
  Cl  Cl19  1  0.42441823  0.77809111  0.59690691  1
