# generated using pymatgen
data_Na2IBr7
_symmetry_space_group_name_H-M   'P 1'
_cell_length_a   5.10348109
_cell_length_b   8.17113861
_cell_length_c   11.01853724
_cell_angle_alpha   100.87379345
_cell_angle_beta   89.39158959
_cell_angle_gamma   111.21310507
_symmetry_Int_Tables_number   1
_chemical_formula_structural   Na2IBr7
_chemical_formula_sum   'Na2 I1 Br7'
_cell_volume   419.82683729
_cell_formula_units_Z   1
loop_
 _symmetry_equiv_pos_site_id
 _symmetry_equiv_pos_as_xyz
  1  'x, y, z'
loop_
 _atom_site_type_symbol
 _atom_site_label
 _atom_site_symmetry_multiplicity
 _atom_site_fract_x
 _atom_site_fract_y
 _atom_site_fract_z
 _atom_site_occupancy
  Na  Na0  1  0.56238030  0.66653626  0.34485723  1
  Na  Na1  1  0.62103101  0.27240849  -0.07242141  1
  I  I2  1  -0.07283493  -0.11754130  -0.06002043  1
  Br  Br3  1  0.71887091  0.30071659  0.53573645  1
  Br  Br4  1  0.40110523  -0.03025319  0.49506893  1
  Br  Br5  1  0.01676972  0.63154726  0.49917354  1
  Br  Br6  1  0.05507440  0.15573934  0.81015152  1
  Br  Br7  1  0.67391365  0.21638205  0.19274655  1
  Br  Br8  1  -0.18270491  0.63250732  0.08560675  1
  Br  Br9  1  0.20639462  0.27195717  0.23074505  1
