# generated using pymatgen
data_KSBr3
_symmetry_space_group_name_H-M   'P 1'
_cell_length_a   7.65601919
_cell_length_b   7.64994892
_cell_length_c   11.46595380
_cell_angle_alpha   90.00383886
_cell_angle_beta   90.00375099
_cell_angle_gamma   90.02984074
_symmetry_Int_Tables_number   1
_chemical_formula_structural   KSBr3
_chemical_formula_sum   'K2 S2 Br6'
_cell_volume   671.53967372
_cell_formula_units_Z   2
loop_
 _symmetry_equiv_pos_site_id
 _symmetry_equiv_pos_as_xyz
  1  'x, y, z'
loop_
 _atom_site_type_symbol
 _atom_site_label
 _atom_site_symmetry_multiplicity
 _atom_site_fract_x
 _atom_site_fract_y
 _atom_site_fract_z
 _atom_site_occupancy
  K  K0  1  -0.00000262  -0.00000123  0.44563573  1
  K  K1  1  -0.00000091  -0.00000244  0.94563139  1
  S  S2  1  0.49999459  -0.00000178  0.45036346  1
  S  S3  1  0.00000003  0.49999415  -0.04960765  1
  Br  Br4  1  0.17074866  0.49992879  0.43929943  1
  Br  Br5  1  0.82925869  0.50006980  0.43934115  1
  Br  Br6  1  0.50000205  0.50000311  0.47673579  1
  Br  Br7  1  0.49992837  0.17076276  -0.06069433  1
  Br  Br8  1  0.50007051  0.82924485  -0.06065086  1
  Br  Br9  1  0.50000063  0.50000199  0.97669565  1
