# generated using pymatgen
data_LiPBr6
_symmetry_space_group_name_H-M   'P 1'
_cell_length_a   8.01249371
_cell_length_b   3.85537441
_cell_length_c   8.04308505
_cell_angle_alpha   90.00469118
_cell_angle_beta   90.00000361
_cell_angle_gamma   90.00000000
_symmetry_Int_Tables_number   1
_chemical_formula_structural   LiPBr6
_chemical_formula_sum   'Li1 P1 Br6'
_cell_volume   248.46025194
_cell_formula_units_Z   1
loop_
 _symmetry_equiv_pos_site_id
 _symmetry_equiv_pos_as_xyz
  1  'x, y, z'
loop_
 _atom_site_type_symbol
 _atom_site_label
 _atom_site_symmetry_multiplicity
 _atom_site_fract_x
 _atom_site_fract_y
 _atom_site_fract_z
 _atom_site_occupancy
  Li  Li0  1  -0.00000000  0.50000000  0.50000000  1
  P  P1  1  0.50000002  -0.00000012  0.50000000  1
  Br  Br2  1  0.00000000  0.49999999  -0.00000000  1
  Br  Br3  1  0.00000000  -0.00002830  0.31006188  1
  Br  Br4  1  -0.00000001  0.00002831  0.68993812  1
  Br  Br5  1  0.50000000  0.00000005  0.00000000  1
  Br  Br6  1  0.49999998  0.50001736  0.70745673  1
  Br  Br7  1  0.50000000  0.49998270  0.29254327  1
