# generated using pymatgen
data_Li3P3Br2
_symmetry_space_group_name_H-M   'P 1'
_cell_length_a   8.54990764
_cell_length_b   8.54955743
_cell_length_c   4.60803757
_cell_angle_alpha   90.00079154
_cell_angle_beta   90.00077956
_cell_angle_gamma   90.00034541
_symmetry_Int_Tables_number   1
_chemical_formula_structural   Li3P3Br2
_chemical_formula_sum   'Li6 P6 Br4'
_cell_volume   336.83799131
_cell_formula_units_Z   2
loop_
 _symmetry_equiv_pos_site_id
 _symmetry_equiv_pos_as_xyz
  1  'x, y, z'
loop_
 _atom_site_type_symbol
 _atom_site_label
 _atom_site_symmetry_multiplicity
 _atom_site_fract_x
 _atom_site_fract_y
 _atom_site_fract_z
 _atom_site_occupancy
  Li  Li0  1  0.50000138  0.00000153  0.50000072  1
  Li  Li1  1  -0.00000154  0.49999866  0.00000055  1
  Li  Li2  1  0.30497014  0.69508285  0.24997426  1
  Li  Li3  1  0.69502958  0.69508274  0.75002691  1
  Li  Li4  1  0.69502984  0.30491717  0.24997423  1
  Li  Li5  1  0.30497059  0.30491709  0.75002515  1
  P  P6  1  -0.00000070  -0.00000012  0.49998693  1
  P  P7  1  0.00000012  0.00000069  0.00001289  1
  P  P8  1  0.49999984  0.49999935  0.50000356  1
  P  P9  1  0.50000066  0.50000016  -0.00000353  1
  P  P10  1  0.00000707  0.50000728  0.49999933  1
  P  P11  1  0.49999261  -0.00000697  -0.00000179  1
  Br  Br12  1  0.76759981  0.23244689  0.74996744  1
  Br  Br13  1  0.23240168  0.23244919  0.25003093  1
  Br  Br14  1  0.76759800  0.76755116  0.25003492  1
  Br  Br15  1  0.23240093  0.76755233  0.74996749  1
