# generated using pymatgen
data_Li6(BrCl)5
_symmetry_space_group_name_H-M   'P 1'
_cell_length_a   7.02876342
_cell_length_b   7.02876342
_cell_length_c   7.02876343
_cell_angle_alpha   90.00004058
_cell_angle_beta   90.00005522
_cell_angle_gamma   90.00009732
_symmetry_Int_Tables_number   1
_chemical_formula_structural   Li6(BrCl)5
_chemical_formula_sum   'Li6 Br5 Cl5'
_cell_volume   347.24562140
_cell_formula_units_Z   1
loop_
 _symmetry_equiv_pos_site_id
 _symmetry_equiv_pos_as_xyz
  1  'x, y, z'
loop_
 _atom_site_type_symbol
 _atom_site_label
 _atom_site_symmetry_multiplicity
 _atom_site_fract_x
 _atom_site_fract_y
 _atom_site_fract_z
 _atom_site_occupancy
  Li  Li0  1  0.50000002  -0.00000003  0.00000001  1
  Li  Li1  1  -0.00000004  0.50000007  0.00000000  1
  Li  Li2  1  0.00000003  0.00000002  0.50000003  1
  Li  Li3  1  0.50000003  0.50000003  0.00000005  1
  Li  Li4  1  0.49999996  -0.00000005  0.49999997  1
  Li  Li5  1  -0.00000001  0.49999996  0.50000003  1
  Br  Br6  1  0.24962054  0.24962051  0.24962045  1
  Br  Br7  1  0.75037948  0.24962044  0.75037950  1
  Br  Br8  1  0.24962044  0.75037949  0.75037951  1
  Br  Br9  1  0.75037950  0.75037951  0.24962054  1
  Br  Br10  1  0.49999998  0.49999995  0.49999993  1
  Cl  Cl11  1  0.00000005  0.00000009  0.00000008  1
  Cl  Cl12  1  0.74769936  0.74769935  0.74769960  1
  Cl  Cl13  1  0.25230058  0.25230060  0.74769925  1
  Cl  Cl14  1  0.25230061  0.74769944  0.25230053  1
  Cl  Cl15  1  0.74769946  0.25230062  0.25230053  1
