# generated using pymatgen
data_LiPBr2
_symmetry_space_group_name_H-M   'P 1'
_cell_length_a   7.04651606
_cell_length_b   7.04651628
_cell_length_c   7.04651616
_cell_angle_alpha   89.99998386
_cell_angle_beta   89.99999884
_cell_angle_gamma   89.99997060
_symmetry_Int_Tables_number   1
_chemical_formula_structural   LiPBr2
_chemical_formula_sum   'Li4 P4 Br8'
_cell_volume   349.88341578
_cell_formula_units_Z   4
loop_
 _symmetry_equiv_pos_site_id
 _symmetry_equiv_pos_as_xyz
  1  'x, y, z'
loop_
 _atom_site_type_symbol
 _atom_site_label
 _atom_site_symmetry_multiplicity
 _atom_site_fract_x
 _atom_site_fract_y
 _atom_site_fract_z
 _atom_site_occupancy
  Li  Li0  1  0.24999999  0.25000000  0.25000000  1
  Li  Li1  1  0.75000000  0.75000000  0.25000000  1
  Li  Li2  1  0.25000000  0.75000000  0.75000000  1
  Li  Li3  1  0.75000000  0.25000000  0.75000000  1
  P  P4  1  0.74999998  0.75000001  0.74999999  1
  P  P5  1  0.75000001  0.25000000  0.24999999  1
  P  P6  1  0.25000001  0.74999998  0.25000000  1
  P  P7  1  0.25000000  0.25000000  0.75000002  1
  Br  Br8  1  0.50000107  0.50000214  0.49999885  1
  Br  Br9  1  -0.00000105  -0.00000214  0.00000114  1
  Br  Br10  1  0.50000105  -0.00000224  0.00000124  1
  Br  Br11  1  -0.00000105  0.50000224  0.49999876  1
  Br  Br12  1  -0.00000107  0.50000217  0.00000111  1
  Br  Br13  1  0.50000106  -0.00000218  0.49999890  1
  Br  Br14  1  0.50000113  0.50000207  0.00000118  1
  Br  Br15  1  -0.00000113  -0.00000206  0.49999881  1
