# generated using pymatgen
data_NaBI2
_symmetry_space_group_name_H-M   'P 1'
_cell_length_a   9.08962388
_cell_length_b   9.08961984
_cell_length_c   5.23000841
_cell_angle_alpha   90.00000622
_cell_angle_beta   90.00000270
_cell_angle_gamma   90.00000432
_symmetry_Int_Tables_number   1
_chemical_formula_structural   NaBI2
_chemical_formula_sum   'Na2 B2 I4'
_cell_volume   432.10970484
_cell_formula_units_Z   2
loop_
 _symmetry_equiv_pos_site_id
 _symmetry_equiv_pos_as_xyz
  1  'x, y, z'
loop_
 _atom_site_type_symbol
 _atom_site_label
 _atom_site_symmetry_multiplicity
 _atom_site_fract_x
 _atom_site_fract_y
 _atom_site_fract_z
 _atom_site_occupancy
  Na  Na0  1  -0.00000017  -0.00000005  0.00000000  1
  Na  Na1  1  0.50000016  0.50000002  -0.00000000  1
  B  B2  1  0.50000851  -0.00000078  -0.00000004  1
  B  B3  1  -0.00000832  0.50000241  0.00000000  1
  I  I4  1  0.49999176  0.00000075  0.50000004  1
  I  I5  1  0.50000004  0.50000000  0.50000000  1
  I  I6  1  -0.00000005  -0.00000001  0.50000000  1
  I  I7  1  0.00000806  0.49999766  0.50000001  1
