# generated using pymatgen
data_Li3Br2O
_symmetry_space_group_name_H-M   'P 1'
_cell_length_a   9.42579306
_cell_length_b   9.42558427
_cell_length_c   9.67140980
_cell_angle_alpha   90.00279042
_cell_angle_beta   90.00280385
_cell_angle_gamma   90.00003254
_symmetry_Int_Tables_number   1
_chemical_formula_structural   Li3Br2O
_chemical_formula_sum   'Li24 Br16 O8'
_cell_volume   859.24292787
_cell_formula_units_Z   8
loop_
 _symmetry_equiv_pos_site_id
 _symmetry_equiv_pos_as_xyz
  1  'x, y, z'
loop_
 _atom_site_type_symbol
 _atom_site_label
 _atom_site_symmetry_multiplicity
 _atom_site_fract_x
 _atom_site_fract_y
 _atom_site_fract_z
 _atom_site_occupancy
  Li  Li0  1  0.64594711  0.32320690  0.81763018  1
  Li  Li1  1  0.35407463  0.32320157  0.81762456  1
  Li  Li2  1  0.64594907  0.67675073  0.81758956  1
  Li  Li3  1  0.35408167  0.67677214  0.81760404  1
  Li  Li4  1  0.49999272  0.49998978  0.59769583  1
  Li  Li5  1  0.32319840  0.14594914  0.06763750  1
  Li  Li6  1  0.32318082  0.85406932  0.06764276  1
  Li  Li7  1  0.67675738  0.14594289  0.06759872  1
  Li  Li8  1  0.67676051  0.85406523  0.06758431  1
  Li  Li9  1  0.49998643  -0.00001048  0.84769679  1
  Li  Li10  1  0.14593177  0.82320375  0.31764166  1
  Li  Li11  1  0.85405982  0.82320140  0.31761680  1
  Li  Li12  1  0.14593450  0.17675310  0.31759867  1
  Li  Li13  1  0.85406703  0.17676661  0.31759195  1
  Li  Li14  1  -0.00001495  -0.00001086  0.09769618  1
  Li  Li15  1  0.82321363  0.64594892  0.56762323  1
  Li  Li16  1  0.82319662  0.35406660  0.56762529  1
  Li  Li17  1  0.17677252  0.64593994  0.56761486  1
  Li  Li18  1  0.17677485  0.35406485  0.56759929  1
  Li  Li19  1  -0.00000722  0.49998872  0.34769674  1
  Li  Li20  1  0.49999749  0.50000682  0.18257781  1
  Li  Li21  1  0.00000559  0.49999783  0.93257603  1
  Li  Li22  1  0.50000882  -0.00000225  0.43257595  1
  Li  Li23  1  -0.00000196  0.00000716  0.68257800  1
  Br  Br24  1  0.50001448  0.19974576  0.63704554  1
  Br  Br25  1  0.50000992  0.80026828  0.63704211  1
  Br  Br26  1  0.19974849  0.00000987  0.88705248  1
  Br  Br27  1  0.80027365  0.00001375  0.88704644  1
  Br  Br28  1  0.00001364  0.69974654  0.13704602  1
  Br  Br29  1  0.00000996  0.30026908  0.13704226  1
  Br  Br30  1  0.69974132  0.50001086  0.38705001  1
  Br  Br31  1  0.30026654  0.50001268  0.38704815  1
  Br  Br32  1  0.50000150  0.21205825  0.24446334  1
  Br  Br33  1  0.50000048  0.78795619  0.24445077  1
  Br  Br34  1  0.71205868  0.50000189  -0.00553209  1
  Br  Br35  1  0.28795534  0.50000261  -0.00554403  1
  Br  Br36  1  0.21205943  0.00000239  0.49446917  1
  Br  Br37  1  0.78795612  0.00000154  0.49445513  1
  Br  Br38  1  0.00000426  0.71205835  0.74446343  1
  Br  Br39  1  0.00000283  0.28795623  0.74445070  1
  O  O40  1  0.29886167  0.50000760  0.67113865  1
  O  O41  1  0.70113255  0.50001465  0.67115699  1
  O  O42  1  0.50002111  0.79885324  0.92112593  1
  O  O43  1  0.50001455  0.20113225  0.92115072  1
  O  O44  1  0.79885169  0.00000925  0.17113103  1
  O  O45  1  0.20112233  0.00001555  0.17116540  1
  O  O46  1  0.00000866  0.29885227  0.42112560  1
  O  O47  1  0.00000356  0.70113111  0.42115200  1
