# generated using pymatgen
data_LiBr2O3
_symmetry_space_group_name_H-M   'P 1'
_cell_length_a   3.14271170
_cell_length_b   10.94134459
_cell_length_c   6.86652980
_cell_angle_alpha   90.01262226
_cell_angle_beta   90.00000104
_cell_angle_gamma   90.00000111
_symmetry_Int_Tables_number   1
_chemical_formula_structural   LiBr2O3
_chemical_formula_sum   'Li2 Br4 O6'
_cell_volume   236.10899743
_cell_formula_units_Z   2
loop_
 _symmetry_equiv_pos_site_id
 _symmetry_equiv_pos_as_xyz
  1  'x, y, z'
loop_
 _atom_site_type_symbol
 _atom_site_label
 _atom_site_symmetry_multiplicity
 _atom_site_fract_x
 _atom_site_fract_y
 _atom_site_fract_z
 _atom_site_occupancy
  Li  Li0  1  0.50000007  -0.19440834  -0.06935682  1
  Li  Li1  1  0.49999994  0.19437332  0.43064767  1
  Br  Br2  1  0.00000000  -0.02255636  0.23927976  1
  Br  Br3  1  0.49999998  0.26767116  0.08933063  1
  Br  Br4  1  -0.00000000  0.02256252  0.73925500  1
  Br  Br5  1  0.50000003  0.73232225  0.58930107  1
  O  O6  1  -0.00000002  0.89017372  0.00648256  1
  O  O7  1  0.00000007  0.54548433  0.86620201  1
  O  O8  1  -0.00000004  0.44188206  0.79502214  1
  O  O9  1  -0.00000002  0.10979733  0.50643779  1
  O  O10  1  -0.00000006  0.45459339  0.36627751  1
  O  O11  1  0.00000005  0.55810462  0.29487453  1
