# generated using pymatgen
data_Na7LiN4
_symmetry_space_group_name_H-M   'P 1'
_cell_length_a   8.30410596
_cell_length_b   8.63592019
_cell_length_c   6.27422083
_cell_angle_alpha   90.01762099
_cell_angle_beta   89.89819887
_cell_angle_gamma   91.80827791
_symmetry_Int_Tables_number   1
_chemical_formula_structural   Na7LiN4
_chemical_formula_sum   'Na14 Li2 N8'
_cell_volume   449.72214744
_cell_formula_units_Z   2
loop_
 _symmetry_equiv_pos_site_id
 _symmetry_equiv_pos_as_xyz
  1  'x, y, z'
loop_
 _atom_site_type_symbol
 _atom_site_label
 _atom_site_symmetry_multiplicity
 _atom_site_fract_x
 _atom_site_fract_y
 _atom_site_fract_z
 _atom_site_occupancy
  Na  Na0  1  0.50025263  0.50051776  0.02190185  1
  Na  Na1  1  0.76965396  0.75800040  0.26660517  1
  Na  Na2  1  0.87457619  0.63693926  0.76483805  1
  Na  Na3  1  0.12512734  0.36358405  0.76467250  1
  Na  Na4  1  0.23021119  0.24179747  0.26252548  1
  Na  Na5  1  0.67735334  0.92629743  0.76842173  1
  Na  Na6  1  0.32214229  0.07446802  0.76075951  1
  Na  Na7  1  0.49951728  0.49860858  0.50630446  1
  Na  Na8  1  0.27435828  0.72507982  0.76316085  1
  Na  Na9  1  0.87575298  0.36657187  0.26535219  1
  Na  Na10  1  0.12453840  0.63347162  0.26362641  1
  Na  Na11  1  0.72700065  0.27559357  0.76573822  1
  Na  Na12  1  0.36899060  0.87896880  0.26185528  1
  Na  Na13  1  0.63105572  0.12111164  0.26671670  1
  Li  Li14  1  -0.00004866  -0.00017361  0.76410615  1
  Li  Li15  1  -0.00003638  -0.00005254  0.26419352  1
  N  N16  1  0.00053943  0.82596781  0.01390908  1
  N  N17  1  -0.00116898  0.17395539  0.01428621  1
  N  N18  1  0.86302185  0.10861257  0.01630228  1
  N  N19  1  0.13648345  0.89099397  0.01530700  1
  N  N20  1  -0.13652881  0.10888193  0.51330210  1
  N  N21  1  0.13686535  0.89095745  0.51216803  1
  N  N22  1  -0.00058643  0.17393834  0.51483104  1
  N  N23  1  0.00092835  0.82590839  0.51408539  1
