# generated using pymatgen
data_NaIO2
_symmetry_space_group_name_H-M   'P 1'
_cell_length_a   4.59462790
_cell_length_b   8.38473114
_cell_length_c   8.07481785
_cell_angle_alpha   71.05378728
_cell_angle_beta   78.67425500
_cell_angle_gamma   78.51265550
_symmetry_Int_Tables_number   1
_chemical_formula_structural   NaIO2
_chemical_formula_sum   'Na4 I4 O8'
_cell_volume   285.40654104
_cell_formula_units_Z   4
loop_
 _symmetry_equiv_pos_site_id
 _symmetry_equiv_pos_as_xyz
  1  'x, y, z'
loop_
 _atom_site_type_symbol
 _atom_site_label
 _atom_site_symmetry_multiplicity
 _atom_site_fract_x
 _atom_site_fract_y
 _atom_site_fract_z
 _atom_site_occupancy
  Na  Na0  1  0.27939123  0.21083081  0.19914764  1
  Na  Na1  1  0.29874933  0.70827410  0.70147696  1
  Na  Na2  1  0.44997546  0.30934946  0.77921610  1
  Na  Na3  1  0.44079343  0.80754707  0.27684855  1
  I  I4  1  -0.03466792  0.01375325  -0.04985642  1
  I  I5  1  0.71932445  0.53584799  0.01233306  1
  I  I6  1  -0.03502901  0.50965378  0.45258567  1
  I  I7  1  0.76905976  0.02598145  0.50635982  1
  O  O8  1  0.53554617  0.53133801  0.51137619  1
  O  O9  1  0.19983947  -0.02626353  0.47864285  1
  O  O10  1  0.53630104  0.03183797  0.00839453  1
  O  O11  1  0.35597812  0.47581769  -0.01858796  1
  O  O12  1  0.77462037  0.70518801  0.79011953  1
  O  O13  1  -0.01583616  0.72292544  0.27486606  1
  O  O14  1  -0.01416478  0.23455537  0.78672105  1
  O  O15  1  0.74011904  0.20336314  0.29035639  1
