# generated using pymatgen
data_Na2IO2
_symmetry_space_group_name_H-M   'P 1'
_cell_length_a   3.27654189
_cell_length_b   10.73000345
_cell_length_c   6.35230403
_cell_angle_alpha   89.96299755
_cell_angle_beta   89.99942869
_cell_angle_gamma   90.00078159
_symmetry_Int_Tables_number   1
_chemical_formula_structural   Na2IO2
_chemical_formula_sum   'Na4 I2 O4'
_cell_volume   223.32984900
_cell_formula_units_Z   2
loop_
 _symmetry_equiv_pos_site_id
 _symmetry_equiv_pos_as_xyz
  1  'x, y, z'
loop_
 _atom_site_type_symbol
 _atom_site_label
 _atom_site_symmetry_multiplicity
 _atom_site_fract_x
 _atom_site_fract_y
 _atom_site_fract_z
 _atom_site_occupancy
  Na  Na0  1  0.49779155  0.74993277  0.97058444  1
  Na  Na1  1  0.50248275  0.24991966  0.97110153  1
  Na  Na2  1  0.50242156  0.25011546  0.47113943  1
  Na  Na3  1  0.49742304  0.75008637  0.47056601  1
  I  I4  1  -0.00004948  0.50000600  0.22064063  1
  I  I5  1  -0.00014150  0.00001787  0.72073285  1
  O  O6  1  0.99795759  0.69362957  0.22065379  1
  O  O7  1  0.00221266  0.30632043  0.22089844  1
  O  O8  1  0.00226625  0.19362940  0.72113706  1
  O  O9  1  0.99763557  0.80634246  0.72050885  1
