# generated using pymatgen
data_Li4PBr8
_symmetry_space_group_name_H-M   'P 1'
_cell_length_a   11.20430248
_cell_length_b   11.20154486
_cell_length_c   7.18955564
_cell_angle_alpha   89.99894451
_cell_angle_beta   89.99862275
_cell_angle_gamma   90.26009856
_symmetry_Int_Tables_number   1
_chemical_formula_structural   Li4PBr8
_chemical_formula_sum   'Li8 P2 Br16'
_cell_volume   902.31945422
_cell_formula_units_Z   2
loop_
 _symmetry_equiv_pos_site_id
 _symmetry_equiv_pos_as_xyz
  1  'x, y, z'
loop_
 _atom_site_type_symbol
 _atom_site_label
 _atom_site_symmetry_multiplicity
 _atom_site_fract_x
 _atom_site_fract_y
 _atom_site_fract_z
 _atom_site_occupancy
  Li  Li0  1  0.08942116  0.59630534  0.28750047  1
  Li  Li1  1  0.59625905  0.08945964  0.28826254  1
  Li  Li2  1  0.91057109  0.40369348  0.28749171  1
  Li  Li3  1  0.40374192  0.91053532  0.28826386  1
  Li  Li4  1  0.90868833  0.59498534  0.78750047  1
  Li  Li5  1  0.59488157  0.90857007  0.78802828  1
  Li  Li6  1  0.40511613  0.09145345  0.78804777  1
  Li  Li7  1  0.09133530  0.40501045  0.78752442  1
  P  P8  1  0.49999660  0.49999392  -0.14103282  1
  P  P9  1  0.49999395  0.49999316  0.59424365  1
  Br  Br10  1  0.05775878  0.21119011  0.96224953  1
  Br  Br11  1  0.21128647  0.05765335  0.96246352  1
  Br  Br12  1  0.78869898  0.94234889  0.96245939  1
  Br  Br13  1  0.94224195  0.78879188  0.96225004  1
  Br  Br14  1  0.94360109  0.21052711  0.46239732  1
  Br  Br15  1  0.78961265  0.05641348  0.46266968  1
  Br  Br16  1  0.13317974  0.60321955  0.94437879  1
  Br  Br17  1  0.39680955  0.86682321  0.94504678  1
  Br  Br18  1  0.86681833  0.39678661  0.94436161  1
  Br  Br19  1  0.60320296  0.13318147  0.94505197  1
  Br  Br20  1  0.86596954  0.60134014  0.44347609  1
  Br  Br21  1  0.60129874  0.86594798  0.44402488  1
  Br  Br22  1  0.39870177  0.13404472  0.44404695  1
  Br  Br23  1  0.13402182  0.39865976  0.44349725  1
  Br  Br24  1  0.05639932  0.78948218  0.46239324  1
  Br  Br25  1  0.21039321  0.94358942  0.46268041  1
