# generated using pymatgen
data_LiPBr4
_symmetry_space_group_name_H-M   'P 1'
_cell_length_a   7.90985185
_cell_length_b   7.63439312
_cell_length_c   6.77816303
_cell_angle_alpha   81.28705300
_cell_angle_beta   93.75744841
_cell_angle_gamma   88.21483559
_symmetry_Int_Tables_number   1
_chemical_formula_structural   LiPBr4
_chemical_formula_sum   'Li2 P2 Br8'
_cell_volume   403.36879192
_cell_formula_units_Z   2
loop_
 _symmetry_equiv_pos_site_id
 _symmetry_equiv_pos_as_xyz
  1  'x, y, z'
loop_
 _atom_site_type_symbol
 _atom_site_label
 _atom_site_symmetry_multiplicity
 _atom_site_fract_x
 _atom_site_fract_y
 _atom_site_fract_z
 _atom_site_occupancy
  Li  Li0  1  0.10610369  -0.13039377  -0.25810545  1
  Li  Li1  1  0.41430996  0.62978710  0.75770235  1
  P  P2  1  0.42271325  0.48246603  0.28866264  1
  P  P3  1  0.09822790  0.01751813  0.21122615  1
  Br  Br4  1  0.43422596  0.21987582  0.49359820  1
  Br  Br5  1  0.58860311  0.40411786  0.04329544  1
  Br  Br6  1  0.14080687  0.61387028  0.56604765  1
  Br  Br7  1  0.62117993  0.62603752  0.45877309  1
  Br  Br8  1  0.08750340  0.28023902  0.00664708  1
  Br  Br9  1  0.93303314  0.09626720  0.45699501  1
  Br  Br10  1  -0.10108486  0.87473073  0.04126930  1
  Br  Br11  1  0.37937767  -0.11451594  0.93388855  1
