# generated using pymatgen
data_Na2(IO)7
_symmetry_space_group_name_H-M   'P 1'
_cell_length_a   10.13573108
_cell_length_b   4.16589690
_cell_length_c   9.69379983
_cell_angle_alpha   75.49933348
_cell_angle_beta   88.34314952
_cell_angle_gamma   97.65130758
_symmetry_Int_Tables_number   1
_chemical_formula_structural   Na2(IO)7
_chemical_formula_sum   'Na2 I7 O7'
_cell_volume   391.92055674
_cell_formula_units_Z   1
loop_
 _symmetry_equiv_pos_site_id
 _symmetry_equiv_pos_as_xyz
  1  'x, y, z'
loop_
 _atom_site_type_symbol
 _atom_site_label
 _atom_site_symmetry_multiplicity
 _atom_site_fract_x
 _atom_site_fract_y
 _atom_site_fract_z
 _atom_site_occupancy
  Na  Na0  1  0.55162696  0.50711763  0.49776996  1
  Na  Na1  1  -0.00452454  -0.20979023  0.23261861  1
  I  I2  1  0.43246817  -0.40217594  -0.05656163  1
  I  I3  1  0.00189847  0.43631040  -0.02018722  1
  I  I4  1  -0.03440828  0.11546435  0.53419672  1
  I  I5  1  0.70100980  0.23135945  0.21956342  1
  I  I6  1  0.24710968  -0.06592286  0.76433080  1
  I  I7  1  0.25187191  0.32039388  0.31523113  1
  I  I8  1  0.71204009  0.93362516  0.73269315  1
  O  O9  1  0.59185463  0.26203812  0.07030891  1
  O  O10  1  -0.04619489  0.61824213  0.49298256  1
  O  O11  1  0.58212938  0.08429711  0.37539474  1
  O  O12  1  0.69097968  0.42328797  0.69482745  1
  O  O13  1  0.74389851  0.67790214  0.22917144  1
  O  O14  1  0.35287359  0.24960653  0.61446836  1
  O  O15  1  0.22536685  0.81824415  0.30319160  1
