# generated using pymatgen
data_Na3CI4
_symmetry_space_group_name_H-M   'P 1'
_cell_length_a   8.59308371
_cell_length_b   9.20316909
_cell_length_c   4.71975491
_cell_angle_alpha   115.93221650
_cell_angle_beta   88.75250230
_cell_angle_gamma   118.19091294
_symmetry_Int_Tables_number   1
_chemical_formula_structural   Na3CI4
_chemical_formula_sum   'Na3 C1 I4'
_cell_volume   287.69997820
_cell_formula_units_Z   1
loop_
 _symmetry_equiv_pos_site_id
 _symmetry_equiv_pos_as_xyz
  1  'x, y, z'
loop_
 _atom_site_type_symbol
 _atom_site_label
 _atom_site_symmetry_multiplicity
 _atom_site_fract_x
 _atom_site_fract_y
 _atom_site_fract_z
 _atom_site_occupancy
  Na  Na0  1  0.38708220  0.54181691  0.40526622  1
  Na  Na1  1  0.40841701  -0.00019173  0.35454594  1
  Na  Na2  1  -0.15772412  0.44961403  0.32058999  1
  C  C3  1  -0.01167957  0.00632156  0.76410007  1
  I  I4  1  0.65050213  -0.00334408  -0.16182918  1
  I  I5  1  0.14147160  0.56914443  -0.06237482  1
  I  I6  1  0.57336030  0.43113358  -0.20426850  1
  I  I7  1  0.00857047  0.00550529  0.31903680  1
