# generated using pymatgen
data_KP5I6
_symmetry_space_group_name_H-M   'P 1'
_cell_length_a   9.80359568
_cell_length_b   10.30817396
_cell_length_c   12.67084483
_cell_angle_alpha   74.74958833
_cell_angle_beta   90.03593825
_cell_angle_gamma   90.01879763
_symmetry_Int_Tables_number   1
_chemical_formula_structural   KP5I6
_chemical_formula_sum   'K2 P10 I12'
_cell_volume   1235.38791784
_cell_formula_units_Z   2
loop_
 _symmetry_equiv_pos_site_id
 _symmetry_equiv_pos_as_xyz
  1  'x, y, z'
loop_
 _atom_site_type_symbol
 _atom_site_label
 _atom_site_symmetry_multiplicity
 _atom_site_fract_x
 _atom_site_fract_y
 _atom_site_fract_z
 _atom_site_occupancy
  K  K0  1  -0.00995372  -0.02601001  0.85079544  1
  K  K1  1  0.00977722  -0.02598650  0.35092597  1
  P  P2  1  0.54591456  0.47174249  0.20503868  1
  P  P3  1  0.56984798  0.63208294  0.29319388  1
  P  P4  1  0.40875462  0.34685163  0.33132006  1
  P  P5  1  0.73083964  0.76603982  0.19927184  1
  P  P6  1  0.63332214  0.30501858  0.33750436  1
  P  P7  1  0.45423360  0.47140441  0.70501730  1
  P  P8  1  0.59166220  0.34663269  0.83132084  1
  P  P9  1  0.36702198  0.30477030  0.83756974  1
  P  P10  1  0.43021821  0.63190768  0.79301250  1
  P  P11  1  0.26900923  0.76567252  0.69921148  1
  I  I12  1  -0.07402927  0.62200531  0.28680009  1
  I  I13  1  0.88564136  0.00662176  0.59019852  1
  I  I14  1  0.68463731  0.13890829  0.23116366  1
  I  I15  1  0.29026779  0.21225591  0.22046212  1
  I  I16  1  0.37577544  0.77973231  0.20272348  1
  I  I17  1  0.72117363  0.74618553  0.00656670  1
  I  I18  1  0.11416999  0.00696481  0.09026315  1
  I  I19  1  0.07414288  0.62172483  0.78704863  1
  I  I20  1  0.27819500  0.74549838  0.50660055  1
  I  I21  1  0.31542522  0.13853174  0.73141833  1
  I  I22  1  0.70965047  0.21194472  0.72035936  1
  I  I23  1  0.62430248  0.77949983  0.70258172  1
