# generated using pymatgen
data_NaC3Br4
_symmetry_space_group_name_H-M   'P 1'
_cell_length_a   6.58940144
_cell_length_b   6.58944541
_cell_length_c   6.58940706
_cell_angle_alpha   90.00001398
_cell_angle_beta   90.00000876
_cell_angle_gamma   90.00000945
_symmetry_Int_Tables_number   1
_chemical_formula_structural   NaC3Br4
_chemical_formula_sum   'Na2 C6 Br8'
_cell_volume   286.11535584
_cell_formula_units_Z   2
loop_
 _symmetry_equiv_pos_site_id
 _symmetry_equiv_pos_as_xyz
  1  'x, y, z'
loop_
 _atom_site_type_symbol
 _atom_site_label
 _atom_site_symmetry_multiplicity
 _atom_site_fract_x
 _atom_site_fract_y
 _atom_site_fract_z
 _atom_site_occupancy
  Na  Na0  1  0.50000000  0.50000000  0.50000000  1
  Na  Na1  1  0.00000000  0.00000000  0.00000000  1
  C  C2  1  0.50000000  -0.00000000  -0.00000000  1
  C  C3  1  0.50000000  0.50000000  -0.00000000  1
  C  C4  1  -0.00000000  0.50000000  -0.00000000  1
  C  C5  1  -0.00000000  0.50000000  0.50000000  1
  C  C6  1  -0.00000000  -0.00000000  0.50000000  1
  C  C7  1  0.50000000  0.00000000  0.50000000  1
  Br  Br8  1  0.25000000  0.25000029  0.24999990  1
  Br  Br9  1  0.75000001  0.74999970  0.24999989  1
  Br  Br10  1  0.24999999  0.74999972  0.75000008  1
  Br  Br11  1  0.75000001  0.25000031  0.75000011  1
  Br  Br12  1  0.24999999  0.25000030  0.75000011  1
  Br  Br13  1  0.24999999  0.74999969  0.24999989  1
  Br  Br14  1  0.75000001  0.25000028  0.24999992  1
  Br  Br15  1  0.75000000  0.74999970  0.75000010  1
