# generated using pymatgen
data_Li3BeBr2
_symmetry_space_group_name_H-M   'P 1'
_cell_length_a   3.68374668
_cell_length_b   9.72582475
_cell_length_c   6.19645667
_cell_angle_alpha   89.48316927
_cell_angle_beta   90.04278362
_cell_angle_gamma   89.99696588
_symmetry_Int_Tables_number   1
_chemical_formula_structural   Li3BeBr2
_chemical_formula_sum   'Li6 Be2 Br4'
_cell_volume   221.99430013
_cell_formula_units_Z   2
loop_
 _symmetry_equiv_pos_site_id
 _symmetry_equiv_pos_as_xyz
  1  'x, y, z'
loop_
 _atom_site_type_symbol
 _atom_site_label
 _atom_site_symmetry_multiplicity
 _atom_site_fract_x
 _atom_site_fract_y
 _atom_site_fract_z
 _atom_site_occupancy
  Li  Li0  1  0.50085856  -0.00054617  0.78980207  1
  Li  Li1  1  -0.00069380  0.35422228  0.76480067  1
  Li  Li2  1  0.50164655  0.00024503  0.28997732  1
  Li  Li3  1  -0.00158243  0.63429587  0.28573515  1
  Li  Li4  1  -0.00094972  0.64604881  0.82085872  1
  Li  Li5  1  0.00100524  0.36478340  0.29974928  1
  Be  Be6  1  0.49968489  0.48716558  -0.01605550  1
  Be  Be7  1  0.49809594  0.51352982  0.60284079  1
  Br  Br8  1  0.00100297  0.11460989  0.53755364  1
  Br  Br9  1  0.49957993  0.76042140  0.54473199  1
  Br  Br10  1  0.00095804  -0.11437348  0.04299879  1
  Br  Br11  1  0.50039383  0.23959758  0.03700709  1
