# generated using pymatgen
data_LiIO3
_symmetry_space_group_name_H-M   'P 1'
_cell_length_a   4.25386098
_cell_length_b   5.17961649
_cell_length_c   7.84975302
_cell_angle_alpha   90.00577360
_cell_angle_beta   90.00134292
_cell_angle_gamma   108.75247661
_symmetry_Int_Tables_number   1
_chemical_formula_structural   LiIO3
_chemical_formula_sum   'Li2 I2 O6'
_cell_volume   163.77531714
_cell_formula_units_Z   2
loop_
 _symmetry_equiv_pos_site_id
 _symmetry_equiv_pos_as_xyz
  1  'x, y, z'
loop_
 _atom_site_type_symbol
 _atom_site_label
 _atom_site_symmetry_multiplicity
 _atom_site_fract_x
 _atom_site_fract_y
 _atom_site_fract_z
 _atom_site_occupancy
  Li  Li0  1  0.39961925  0.09504309  0.10410089  1
  Li  Li1  1  0.10036613  0.40496771  0.60412100  1
  I  I2  1  0.74019164  0.79624361  0.46973718  1
  I  I3  1  -0.24016474  -0.29625146  0.96971540  1
  O  O4  1  0.62502375  0.47223236  0.15042841  1
  O  O5  1  0.29270001  0.75779584  0.45123237  1
  O  O6  1  0.65736211  0.47246867  0.58340258  1
  O  O7  1  0.87499275  0.02779990  0.65048548  1
  O  O8  1  0.20725479  -0.25783329  -0.04879504  1
  O  O9  1  -0.15734569  0.02753358  0.08339659  1
