# generated using pymatgen
data_Li4BeBr6
_symmetry_space_group_name_H-M   'P 1'
_cell_length_a   10.46491783
_cell_length_b   10.71783379
_cell_length_c   10.97955867
_cell_angle_alpha   99.86908429
_cell_angle_beta   88.22385685
_cell_angle_gamma   124.50823613
_symmetry_Int_Tables_number   1
_chemical_formula_structural   Li4BeBr6
_chemical_formula_sum   'Li12 Be3 Br18'
_cell_volume   996.45855749
_cell_formula_units_Z   3
loop_
 _symmetry_equiv_pos_site_id
 _symmetry_equiv_pos_as_xyz
  1  'x, y, z'
loop_
 _atom_site_type_symbol
 _atom_site_label
 _atom_site_symmetry_multiplicity
 _atom_site_fract_x
 _atom_site_fract_y
 _atom_site_fract_z
 _atom_site_occupancy
  Li  Li0  1  0.71339617  -0.02019546  0.59687861  1
  Li  Li1  1  0.71208086  0.34950376  0.12327506  1
  Li  Li2  1  0.32358328  0.80330325  0.57071164  1
  Li  Li3  1  -0.09042147  0.64414923  0.00771160  1
  Li  Li4  1  0.17282882  0.55219528  0.13068093  1
  Li  Li5  1  0.40750995  0.13949724  0.77910173  1
  Li  Li6  1  0.88896232  0.18276559  0.30099408  1
  Li  Li7  1  0.59627812  0.60752720  0.09414813  1
  Li  Li8  1  0.48997813  0.59029800  0.76706438  1
  Li  Li9  1  0.06252283  0.83678864  0.29492059  1
  Li  Li10  1  0.25261150  0.31481675  -0.05178813  1
  Li  Li11  1  0.44554621  0.05881940  0.39693575  1
  Be  Be12  1  -0.03380332  -0.14928248  0.75842413  1
  Be  Be13  1  -0.00132110  0.03782066  0.08291148  1
  Be  Be14  1  0.11393582  0.13444712  0.55121257  1
  Br  Br15  1  0.48688571  0.30601979  0.98978225  1
  Br  Br16  1  0.38821167  0.60576751  -0.01745102  1
  Br  Br17  1  -0.21284492  0.61437699  0.22912694  1
  Br  Br18  1  -0.06251783  0.42975783  -0.01101188  1
  Br  Br19  1  0.55253371  0.09322086  0.61345303  1
  Br  Br20  1  0.48669749  -0.29315672  0.59564668  1
  Br  Br21  1  0.29488145  0.28148318  0.70624987  1
  Br  Br22  1  0.77439108  0.92631748  0.15553148  1
  Br  Br23  1  0.92841852  -0.11565490  0.57180149  1
  Br  Br24  1  -0.02919367  0.04606122  0.88185969  1
  Br  Br25  1  0.12188854  -0.07105811  0.08396322  1
  Br  Br26  1  0.24273687  0.75528848  0.33503117  1
  Br  Br27  1  0.67970992  0.21857763  0.29421251  1
  Br  Br28  1  -0.02785562  0.22027649  0.53041704  1
  Br  Br29  1  0.17452545  -0.14805297  0.75953712  1
  Br  Br30  1  -0.23200418  0.63803642  0.80626948  1
  Br  Br31  1  0.23979200  0.12439630  0.39610519  1
  Br  Br32  1  0.14005569  0.28588835  0.17629320  1
