# generated using pymatgen
data_NaI2O3
_symmetry_space_group_name_H-M   'P 1'
_cell_length_a   6.01125105
_cell_length_b   6.01125034
_cell_length_c   6.01125072
_cell_angle_alpha   89.99999906
_cell_angle_beta   90.00000371
_cell_angle_gamma   90.00000181
_symmetry_Int_Tables_number   1
_chemical_formula_structural   NaI2O3
_chemical_formula_sum   'Na2 I4 O6'
_cell_volume   217.21735546
_cell_formula_units_Z   2
loop_
 _symmetry_equiv_pos_site_id
 _symmetry_equiv_pos_as_xyz
  1  'x, y, z'
loop_
 _atom_site_type_symbol
 _atom_site_label
 _atom_site_symmetry_multiplicity
 _atom_site_fract_x
 _atom_site_fract_y
 _atom_site_fract_z
 _atom_site_occupancy
  Na  Na0  1  -0.00000000  -0.00000000  -0.00000000  1
  Na  Na1  1  0.50000000  0.50000000  0.50000000  1
  I  I2  1  0.24999995  0.25000005  0.24999999  1
  I  I3  1  0.75000006  0.25000004  0.75000000  1
  I  I4  1  0.24999995  0.74999996  0.75000001  1
  I  I5  1  0.75000006  0.74999996  0.24999999  1
  O  O6  1  0.49999999  -0.00000000  -0.00000001  1
  O  O7  1  -0.00000001  0.49999999  -0.00000001  1
  O  O8  1  -0.00000001  -0.00000001  0.49999999  1
  O  O9  1  0.00000001  0.50000000  0.50000001  1
  O  O10  1  0.49999999  0.50000001  0.00000001  1
  O  O11  1  0.50000000  0.00000001  0.50000001  1
