# generated using pymatgen
data_Li4Br2O
_symmetry_space_group_name_H-M   'P 1'
_cell_length_a   6.70516096
_cell_length_b   5.73660567
_cell_length_c   6.74389678
_cell_angle_alpha   90.00212237
_cell_angle_beta   51.74139507
_cell_angle_gamma   90.00185202
_symmetry_Int_Tables_number   1
_chemical_formula_structural   Li4Br2O
_chemical_formula_sum   'Li8 Br4 O2'
_cell_volume   203.68950562
_cell_formula_units_Z   2
loop_
 _symmetry_equiv_pos_site_id
 _symmetry_equiv_pos_as_xyz
  1  'x, y, z'
loop_
 _atom_site_type_symbol
 _atom_site_label
 _atom_site_symmetry_multiplicity
 _atom_site_fract_x
 _atom_site_fract_y
 _atom_site_fract_z
 _atom_site_occupancy
  Li  Li0  1  0.73843920  0.25059556  0.50520240  1
  Li  Li1  1  0.13823523  0.01143800  0.39896814  1
  Li  Li2  1  0.34365663  0.51124838  0.61821406  1
  Li  Li3  1  -0.25627617  0.75044975  0.51174088  1
  Li  Li4  1  0.24372788  0.74952240  0.01180976  1
  Li  Li5  1  0.84378046  0.98881126  0.11812331  1
  Li  Li6  1  0.63839179  0.48863600  -0.10118160  1
  Li  Li7  1  0.23851103  0.24939299  0.00519642  1
  Br  Br8  1  0.33963769  -0.00246426  0.60815887  1
  Br  Br9  1  0.14251925  0.49761450  0.40889030  1
  Br  Br10  1  0.64252458  0.00235428  0.90888454  1
  Br  Br11  1  0.83967624  0.50243805  0.10812621  1
  O  O12  1  0.99107792  0.00002514  0.25849002  1
  O  O13  1  0.49109827  0.49993795  0.75847061  1
