# generated using pymatgen
data_K2(SiBr)3
_symmetry_space_group_name_H-M   'P 1'
_cell_length_a   5.08306251
_cell_length_b   5.08201302
_cell_length_c   10.64546849
_cell_angle_alpha   90.00001914
_cell_angle_beta   90.00014013
_cell_angle_gamma   94.61879445
_symmetry_Int_Tables_number   1
_chemical_formula_structural   K2(SiBr)3
_chemical_formula_sum   'K2 Si3 Br3'
_cell_volume   274.10271952
_cell_formula_units_Z   1
loop_
 _symmetry_equiv_pos_site_id
 _symmetry_equiv_pos_as_xyz
  1  'x, y, z'
loop_
 _atom_site_type_symbol
 _atom_site_label
 _atom_site_symmetry_multiplicity
 _atom_site_fract_x
 _atom_site_fract_y
 _atom_site_fract_z
 _atom_site_occupancy
  K  K0  1  0.49999931  0.50000026  0.90021337  1
  K  K1  1  0.00000053  -0.00000024  0.55442879  1
  Si  Si2  1  -0.00000054  0.50000094  0.23002978  1
  Si  Si3  1  0.50000036  -0.00000052  0.23014354  1
  Si  Si4  1  0.00000103  0.00000060  0.19611593  1
  Br  Br5  1  0.49999947  0.49999892  0.31500049  1
  Br  Br6  1  0.49999911  -0.00000025  0.72666065  1
  Br  Br7  1  0.00000073  0.50000028  0.72663725  1
