# generated using pymatgen
data_LiClO4
_symmetry_space_group_name_H-M   'P 1'
_cell_length_a   6.80354920
_cell_length_b   10.71114020
_cell_length_c   10.14031567
_cell_angle_alpha   90.00069648
_cell_angle_beta   90.00000881
_cell_angle_gamma   90.00013551
_symmetry_Int_Tables_number   1
_chemical_formula_structural   LiClO4
_chemical_formula_sum   'Li8 Cl8 O32'
_cell_volume   738.96302566
_cell_formula_units_Z   8
loop_
 _symmetry_equiv_pos_site_id
 _symmetry_equiv_pos_as_xyz
  1  'x, y, z'
loop_
 _atom_site_type_symbol
 _atom_site_label
 _atom_site_symmetry_multiplicity
 _atom_site_fract_x
 _atom_site_fract_y
 _atom_site_fract_z
 _atom_site_occupancy
  Li  Li0  1  0.74991697  0.25000083  0.74996674  1
  Li  Li1  1  0.25011545  0.24999899  0.24983023  1
  Li  Li2  1  0.49992573  0.00000012  0.49976926  1
  Li  Li3  1  -0.00004336  0.00000041  0.00004853  1
  Li  Li4  1  0.25001548  0.74999706  0.75015803  1
  Li  Li5  1  0.75001314  0.74999888  0.24976587  1
  Li  Li6  1  -0.00005400  0.50000046  0.49955222  1
  Li  Li7  1  0.50004744  0.49999916  0.00031347  1
  Cl  Cl8  1  0.25005034  0.24998919  0.74999623  1
  Cl  Cl9  1  0.74990773  0.25001328  0.24997223  1
  Cl  Cl10  1  0.00006244  0.00000593  0.49996077  1
  Cl  Cl11  1  0.50004434  -0.00000554  0.00000816  1
  Cl  Cl12  1  0.74998860  0.75001093  0.75002310  1
  Cl  Cl13  1  0.24999017  0.74998723  0.24995621  1
  Cl  Cl14  1  -0.00002988  0.50000601  0.00005283  1
  Cl  Cl15  1  0.50004440  0.49999630  0.49992165  1
  O  O16  1  0.09289099  0.31503152  0.49876901  1
  O  O17  1  0.90711364  0.31501330  0.50137322  1
  O  O18  1  0.40711622  0.18498447  0.49873597  1
  O  O19  1  0.59289231  0.18497275  0.50135024  1
  O  O20  1  0.40709309  0.31505768  0.00129002  1
  O  O21  1  0.59287666  0.31499645  -0.00134475  1
  O  O22  1  0.09290348  0.18495316  0.00133518  1
  O  O23  1  0.90712262  0.18499728  -0.00128449  1
  O  O24  1  0.15710278  0.93497210  0.75130270  1
  O  O25  1  0.34287770  0.93498483  0.74869883  1
  O  O26  1  0.84289454  0.06504608  0.75131749  1
  O  O27  1  0.65712230  0.06499383  0.74872013  1
  O  O28  1  0.84289429  0.93496690  0.24872889  1
  O  O29  1  0.65711066  0.93497852  0.25136160  1
  O  O30  1  0.15710731  0.06503693  0.24871660  1
  O  O31  1  0.34288936  0.06501634  0.25134942  1
  O  O32  1  0.40711627  0.81500493  0.50132309  1
  O  O33  1  0.59288966  0.81503266  0.49872911  1
  O  O34  1  0.09288411  0.68498418  0.50135964  1
  O  O35  1  0.90710528  0.68497675  0.49876756  1
  O  O36  1  0.90710864  0.81503217  0.00132837  1
  O  O37  1  0.09289462  0.81502076  -0.00131871  1
  O  O38  1  0.40711104  0.68497583  -0.00135249  1
  O  O39  1  0.59289866  0.68497036  0.00129175  1
  O  O40  1  0.84288177  0.43498259  0.74873827  1
  O  O41  1  0.65711142  0.43498975  0.75131193  1
  O  O42  1  0.15711568  0.56500314  0.74870332  1
  O  O43  1  0.34288868  0.56502520  0.75126611  1
  O  O44  1  0.15709645  0.43495175  0.25136933  1
  O  O45  1  0.34288973  0.43498704  0.24869828  1
  O  O46  1  0.84289942  0.56502875  0.25137229  1
  O  O47  1  0.65710562  0.56503275  0.24869656  1
