# generated using pymatgen
data_NaI
_symmetry_space_group_name_H-M   'P 1'
_cell_length_a   8.92158614
_cell_length_b   6.55412735
_cell_length_c   4.69200953
_cell_angle_alpha   90.00138844
_cell_angle_beta   89.99967337
_cell_angle_gamma   90.00041298
_symmetry_Int_Tables_number   1
_chemical_formula_structural   NaI
_chemical_formula_sum   'Na4 I4'
_cell_volume   274.35686682
_cell_formula_units_Z   4
loop_
 _symmetry_equiv_pos_site_id
 _symmetry_equiv_pos_as_xyz
  1  'x, y, z'
loop_
 _atom_site_type_symbol
 _atom_site_label
 _atom_site_symmetry_multiplicity
 _atom_site_fract_x
 _atom_site_fract_y
 _atom_site_fract_z
 _atom_site_occupancy
  Na  Na0  1  0.37940021  0.25114525  0.70348746  1
  Na  Na1  1  0.87940076  0.24885467  0.70348619  1
  Na  Na2  1  0.62059771  0.74885333  0.20345989  1
  Na  Na3  1  0.12059800  0.75114675  0.20346128  1
  I  I4  1  0.62722876  0.24933418  0.20279407  1
  I  I5  1  0.12722831  0.25066587  0.20279395  1
  I  I6  1  0.37277312  0.75066461  0.70279068  1
  I  I7  1  0.87277313  0.74933533  0.70279076  1
