# generated using pymatgen
data_KI
_symmetry_space_group_name_H-M   'P 1'
_cell_length_a   13.60113359
_cell_length_b   13.60113493
_cell_length_c   13.60113640
_cell_angle_alpha   89.99997342
_cell_angle_beta   89.99995487
_cell_angle_gamma   89.99996168
_symmetry_Int_Tables_number   1
_chemical_formula_structural   KI
_chemical_formula_sum   'K24 I24'
_cell_volume   2516.08582715
_cell_formula_units_Z   24
loop_
 _symmetry_equiv_pos_site_id
 _symmetry_equiv_pos_as_xyz
  1  'x, y, z'
loop_
 _atom_site_type_symbol
 _atom_site_label
 _atom_site_symmetry_multiplicity
 _atom_site_fract_x
 _atom_site_fract_y
 _atom_site_fract_z
 _atom_site_occupancy
  K  K0  1  0.61961655  0.26214879  0.05620191  1
  K  K1  1  0.11961724  0.23785029  0.94379727  1
  K  K2  1  0.55620239  0.61961656  0.23785105  1
  K  K3  1  0.55620136  0.88038393  0.73785110  1
  K  K4  1  0.76214943  0.44379747  0.38038305  1
  K  K5  1  0.05620229  0.61961710  0.26214872  1
  K  K6  1  0.94379700  0.11961738  0.23785023  1
  K  K7  1  0.44379755  0.38038337  0.76214906  1
  K  K8  1  0.73785094  0.55620247  0.88038315  1
  K  K9  1  0.26214857  0.05620156  0.61961605  1
  K  K10  1  0.23785094  0.94379775  0.11961709  1
  K  K11  1  0.38038384  0.76214882  0.44379808  1
  K  K12  1  0.88038302  0.73785104  0.55620250  1
  K  K13  1  0.94379773  0.38038290  0.73785130  1
  K  K14  1  0.05620298  0.88038263  0.76214976  1
  K  K15  1  0.44379869  0.11961601  0.26214880  1
  K  K16  1  0.23785065  0.55620250  0.61961693  1
  K  K17  1  0.26214903  0.44379757  0.11961680  1
  K  K18  1  0.73785144  0.94379846  0.38038398  1
  K  K19  1  0.76214898  0.05620220  0.88038293  1
  K  K20  1  0.61961610  0.23785127  0.55620185  1
  K  K21  1  0.11961696  0.26214894  0.44379751  1
  K  K22  1  0.38038350  0.73785129  0.94379816  1
  K  K23  1  0.88038278  0.76214967  0.05620272  1
  I  I24  1  0.04940607  0.35341595  0.21536399  1
  I  I25  1  0.54940662  0.14658506  0.78463644  1
  I  I26  1  0.71536316  0.04940600  0.14658463  1
  I  I27  1  0.71536408  0.45059367  0.64658435  1
  I  I28  1  0.85341595  0.28463583  0.95059420  1
  I  I29  1  0.21536439  0.04940644  0.35341551  1
  I  I30  1  0.78463649  0.54940657  0.14658441  1
  I  I31  1  0.28463678  0.95059403  0.85341542  1
  I  I32  1  0.64658462  0.71536388  0.45059350  1
  I  I33  1  0.35341552  0.21536364  0.04940653  1
  I  I34  1  0.14658483  0.78463686  0.54940655  1
  I  I35  1  0.95059396  0.85341610  0.28463626  1
  I  I36  1  0.45059346  0.64658462  0.71536392  1
  I  I37  1  0.78463567  0.95059356  0.64658449  1
  I  I38  1  0.21536343  0.45059342  0.85341558  1
  I  I39  1  0.28463600  0.54940636  0.35341559  1
  I  I40  1  0.14658406  0.71536411  0.04940581  1
  I  I41  1  0.35341529  0.28463621  0.54940656  1
  I  I42  1  0.64658457  0.78463647  0.95059342  1
  I  I43  1  0.85341518  0.21536311  0.45059345  1
  I  I44  1  0.04940604  0.14658389  0.71536372  1
  I  I45  1  0.54940658  0.35341531  0.28463621  1
  I  I46  1  0.95059393  0.64658406  0.78463604  1
  I  I47  1  0.45059336  0.85341489  0.21536344  1
