# generated using pymatgen
data_NaCl
_symmetry_space_group_name_H-M   'P 1'
_cell_length_a   5.68181435
_cell_length_b   5.68419741
_cell_length_c   5.69768465
_cell_angle_alpha   90.00002731
_cell_angle_beta   90.11831566
_cell_angle_gamma   90.00000294
_symmetry_Int_Tables_number   1
_chemical_formula_structural   NaCl
_chemical_formula_sum   'Na4 Cl4'
_cell_volume   184.01519004
_cell_formula_units_Z   4
loop_
 _symmetry_equiv_pos_site_id
 _symmetry_equiv_pos_as_xyz
  1  'x, y, z'
loop_
 _atom_site_type_symbol
 _atom_site_label
 _atom_site_symmetry_multiplicity
 _atom_site_fract_x
 _atom_site_fract_y
 _atom_site_fract_z
 _atom_site_occupancy
  Na  Na0  1  0.00514063  0.24982478  0.79820929  1
  Na  Na1  1  0.50514056  0.74982484  0.79820927  1
  Na  Na2  1  0.00513979  0.75017509  0.29818729  1
  Na  Na3  1  0.50513986  0.25017514  0.29818730  1
  Cl  Cl4  1  0.00661583  0.25080583  0.29813868  1
  Cl  Cl5  1  0.50661578  0.75080588  0.29813868  1
  Cl  Cl6  1  0.00661795  0.74919420  0.79811506  1
  Cl  Cl7  1  0.50661800  0.24919425  0.79811507  1
