# generated using pymatgen
data_LiBr
_symmetry_space_group_name_H-M   'P 1'
_cell_length_a   16.25609524
_cell_length_b   16.25607969
_cell_length_c   10.26463775
_cell_angle_alpha   90.01035452
_cell_angle_beta   89.98982355
_cell_angle_gamma   120.01181841
_symmetry_Int_Tables_number   1
_chemical_formula_structural   LiBr
_chemical_formula_sum   'Li36 Br36'
_cell_volume   2348.84615353
_cell_formula_units_Z   36
loop_
 _symmetry_equiv_pos_site_id
 _symmetry_equiv_pos_as_xyz
  1  'x, y, z'
loop_
 _atom_site_type_symbol
 _atom_site_label
 _atom_site_symmetry_multiplicity
 _atom_site_fract_x
 _atom_site_fract_y
 _atom_site_fract_z
 _atom_site_occupancy
  Li  Li0  1  0.08291035  0.16518061  0.62523112  1
  Li  Li1  1  0.25091746  0.74959208  0.04162449  1
  Li  Li2  1  0.74901349  0.49857541  0.45845410  1
  Li  Li3  1  0.74908273  0.25040741  0.95837546  1
  Li  Li4  1  0.58431335  0.41624965  0.70814965  1
  Li  Li5  1  0.41566427  0.83189305  0.79192048  1
  Li  Li6  1  0.16810720  0.58433522  0.29191850  1
  Li  Li7  1  0.49857530  0.74901420  0.04154796  1
  Li  Li8  1  0.83189284  0.41566455  0.70808215  1
  Li  Li9  1  0.83478234  0.91773827  0.62522490  1
  Li  Li10  1  0.41568691  0.58375077  0.29185034  1
  Li  Li11  1  0.49853819  0.74950591  0.54154188  1
  Li  Li12  1  0.50146216  0.25049396  0.45845823  1
  Li  Li13  1  0.08292674  0.91774627  0.12515870  1
  Li  Li14  1  0.58433532  0.16810710  0.20807980  1
  Li  Li15  1  0.50142406  0.25098643  0.95845165  1
  Li  Li16  1  0.16521735  0.08226172  0.37477520  1
  Li  Li17  1  0.25098604  0.50142429  0.54154570  1
  Li  Li18  1  0.58382563  0.16817394  0.70808065  1
  Li  Li19  1  0.41624888  0.58431357  0.79185020  1
  Li  Li20  1  0.08225376  0.91707319  0.62515836  1
  Li  Li21  1  0.41617492  0.83182598  0.29191948  1
  Li  Li22  1  0.58375077  0.41568663  0.20815001  1
  Li  Li23  1  0.91774599  0.08292672  0.37484156  1
  Li  Li24  1  0.91708934  0.83481954  0.37476876  1
  Li  Li25  1  0.91707325  0.08225376  0.87484145  1
  Li  Li26  1  0.25049507  0.50146217  0.04153978  1
  Li  Li27  1  0.74959246  0.25091700  0.45837536  1
  Li  Li28  1  0.74950483  0.49853736  0.95846004  1
  Li  Li29  1  0.25040844  0.74908323  0.54162420  1
  Li  Li30  1  0.08226114  0.16521782  0.12522677  1
  Li  Li31  1  0.16817445  0.58382542  0.79191744  1
  Li  Li32  1  0.83182558  0.41617438  0.20808272  1
  Li  Li33  1  0.91773902  0.83478233  0.87477310  1
  Li  Li34  1  0.83481951  0.91708972  0.12522923  1
  Li  Li35  1  0.16518020  0.08291017  0.87477086  1
  Br  Br36  1  0.90290043  0.80529899  0.12448154  1
  Br  Br37  1  0.43089875  0.56944435  0.54210874  1
  Br  Br38  1  0.56911021  0.13859904  0.95779189  1
  Br  Br39  1  0.56910117  0.43055577  0.45789138  1
  Br  Br40  1  0.76420286  0.23616202  0.20872669  1
  Br  Br41  1  0.23579720  0.47200169  0.29117804  1
  Br  Br42  1  0.52799799  0.76420328  0.79117990  1
  Br  Br43  1  0.13859906  0.56911041  0.54220654  1
  Br  Br44  1  0.47200181  0.23579693  0.20882026  1
  Br  Br45  1  0.19470200  0.09763463  0.12446974  1
  Br  Br46  1  0.23579710  0.76383777  0.79127318  1
  Br  Br47  1  0.13859584  0.56947520  0.04218098  1
  Br  Br48  1  0.86140424  0.43052445  0.95781922  1
  Br  Br49  1  0.90289972  0.09760645  0.62455960  1
  Br  Br50  1  0.76420306  0.52799805  0.70882210  1
  Br  Br51  1  0.86140096  0.43088961  0.45779359  1
  Br  Br52  1  0.80529809  0.90236533  0.87553021  1
  Br  Br53  1  0.43088986  0.86140167  0.04220815  1
  Br  Br54  1  0.76378511  0.52799297  0.20880911  1
  Br  Br55  1  0.23616269  0.76420309  0.29127337  1
  Br  Br56  1  0.90239343  0.09710046  0.12455958  1
  Br  Br57  1  0.23621461  0.47200669  0.79119060  1
  Br  Br58  1  0.76383792  0.23579661  0.70872659  1
  Br  Br59  1  0.09760641  0.90289954  0.87544036  1
  Br  Br60  1  0.09709962  0.19470134  0.87551868  1
  Br  Br61  1  0.09710028  0.90239347  0.37544044  1
  Br  Br62  1  0.43052523  0.86140505  0.54218242  1
  Br  Br63  1  0.56944376  0.43089889  0.95789144  1
  Br  Br64  1  0.56947540  0.13859519  0.45781751  1
  Br  Br65  1  0.43055606  0.56910135  0.04210846  1
  Br  Br66  1  0.90236536  0.80529771  0.62446811  1
  Br  Br67  1  0.52799317  0.76378529  0.29119220  1
  Br  Br68  1  0.47200727  0.23621487  0.70880737  1
  Br  Br69  1  0.09763440  0.19470205  0.37553159  1
  Br  Br70  1  0.19470090  0.09709959  0.62448301  1
  Br  Br71  1  0.80529867  0.90290040  0.37551710  1
