# generated using pymatgen
data_LiBr
_symmetry_space_group_name_H-M   'P 1'
_cell_length_a   7.38602804
_cell_length_b   8.23094740
_cell_length_c   7.42219517
_cell_angle_alpha   89.99986054
_cell_angle_beta   89.99930608
_cell_angle_gamma   89.99998802
_symmetry_Int_Tables_number   1
_chemical_formula_structural   LiBr
_chemical_formula_sum   'Li8 Br8'
_cell_volume   451.22499432
_cell_formula_units_Z   8
loop_
 _symmetry_equiv_pos_site_id
 _symmetry_equiv_pos_as_xyz
  1  'x, y, z'
loop_
 _atom_site_type_symbol
 _atom_site_label
 _atom_site_symmetry_multiplicity
 _atom_site_fract_x
 _atom_site_fract_y
 _atom_site_fract_z
 _atom_site_occupancy
  Li  Li0  1  0.14714906  0.86247421  0.07892084  1
  Li  Li1  1  0.14715139  0.13752267  0.57892020  1
  Li  Li2  1  0.64714633  0.63753043  0.92107701  1
  Li  Li3  1  0.35284894  0.63752641  0.57892478  1
  Li  Li4  1  0.85284820  0.86247667  0.42107823  1
  Li  Li5  1  0.35285313  0.36246965  0.07892411  1
  Li  Li6  1  0.64714945  0.36247357  0.42107630  1
  Li  Li7  1  0.85285133  0.13752609  0.92107805  1
  Br  Br8  1  0.70256310  0.36937480  0.08268604  1
  Br  Br9  1  0.70256041  0.63062824  0.58268568  1
  Br  Br10  1  0.20256450  0.13062609  -0.08269183  1
  Br  Br11  1  0.79743972  0.13062796  0.58269101  1
  Br  Br12  1  0.29743821  0.36937217  0.41731406  1
  Br  Br13  1  0.79743807  0.86937526  0.08269192  1
  Br  Br14  1  0.20256155  0.86937137  0.41730964  1
  Br  Br15  1  0.29743661  0.63062443  -0.08268604  1
