# generated using pymatgen
data_LiBr
_symmetry_space_group_name_H-M   'P 1'
_cell_length_a   14.43790602
_cell_length_b   14.43788432
_cell_length_c   14.43793405
_cell_angle_alpha   89.99993328
_cell_angle_beta   90.00142762
_cell_angle_gamma   90.00049149
_symmetry_Int_Tables_number   1
_chemical_formula_structural   LiBr
_chemical_formula_sum   'Li48 Br48'
_cell_volume   3009.62802240
_cell_formula_units_Z   48
loop_
 _symmetry_equiv_pos_site_id
 _symmetry_equiv_pos_as_xyz
  1  'x, y, z'
loop_
 _atom_site_type_symbol
 _atom_site_label
 _atom_site_symmetry_multiplicity
 _atom_site_fract_x
 _atom_site_fract_y
 _atom_site_fract_z
 _atom_site_occupancy
  Li  Li0  1  -0.07740358  0.67961423  0.75125062  1
  Li  Li1  1  0.74875350  0.42259343  0.67961668  1
  Li  Li2  1  0.25123911  0.07740716  0.67960917  1
  Li  Li3  1  0.74875772  0.57740597  0.82038529  1
  Li  Li4  1  0.25125217  -0.07740419  0.82038373  1
  Li  Li5  1  0.67961061  0.74875271  0.42259541  1
  Li  Li6  1  0.32038885  0.75124452  0.42259872  1
  Li  Li7  1  -0.07740726  0.32038790  0.74876112  1
  Li  Li8  1  0.42259619  0.17961296  0.25124768  1
  Li  Li9  1  0.24875503  -0.07740699  0.17961441  1
  Li  Li10  1  0.24874727  0.57740190  0.67961393  1
  Li  Li11  1  0.82038636  0.75124710  0.07740595  1
  Li  Li12  1  0.24876033  0.42259138  0.82039304  1
  Li  Li13  1  0.75124234  -0.07740632  0.67961377  1
  Li  Li14  1  0.75124767  0.07740689  0.82038305  1
  Li  Li15  1  0.17961101  0.74875680  0.07740250  1
  Li  Li16  1  0.82038920  0.24875409  0.42259948  1
  Li  Li17  1  0.32038974  0.74875527  -0.07740275  1
  Li  Li18  1  0.67961219  0.75124305  -0.07741230  1
  Li  Li19  1  0.57740781  0.32039134  0.25124007  1
  Li  Li20  1  0.07740448  0.32039028  0.24874999  1
  Li  Li21  1  0.67960980  0.25124631  0.07740317  1
  Li  Li22  1  0.32038416  0.24875507  0.07741057  1
  Li  Li23  1  0.42258983  0.67960771  0.74876056  1
  Li  Li24  1  0.42259475  0.32038319  0.75125216  1
  Li  Li25  1  0.57740626  0.17960983  0.75124142  1
  Li  Li26  1  0.17961650  0.25124745  0.42259038  1
  Li  Li27  1  0.07740839  0.82039215  0.75123782  1
  Li  Li28  1  0.07740600  0.17961813  0.74875007  1
  Li  Li29  1  0.75123756  0.57740932  0.17960769  1
  Li  Li30  1  0.24875840  0.07740583  0.32038890  1
  Li  Li31  1  0.75125091  0.42259686  0.32038675  1
  Li  Li32  1  0.17961283  0.24875439  -0.07740795  1
  Li  Li33  1  0.82039309  0.25124275  -0.07740214  1
  Li  Li34  1  0.17961054  0.75124291  0.57740166  1
  Li  Li35  1  0.82039029  0.74875447  0.57740778  1
  Li  Li36  1  0.57740528  0.67962047  0.24874939  1
  Li  Li37  1  0.42259250  0.82038908  0.24876263  1
  Li  Li38  1  -0.07740682  0.17960748  0.24876063  1
  Li  Li39  1  -0.07740435  0.82038184  0.25124943  1
  Li  Li40  1  0.07740851  0.67961094  0.25123610  1
  Li  Li41  1  0.57740405  0.82038460  0.74875002  1
  Li  Li42  1  0.25124626  0.57740891  0.32038499  1
  Li  Li43  1  0.74876119  -0.07740801  0.32039377  1
  Li  Li44  1  0.25124514  0.42259405  0.17961231  1
  Li  Li45  1  0.74874797  0.07740432  0.17961221  1
  Li  Li46  1  0.32038862  0.25124570  0.57740658  1
  Li  Li47  1  0.67960632  0.24875735  0.57740302  1
  Br  Br48  1  0.34685366  0.68903395  0.58850554  1
  Br  Br49  1  0.91149716  0.84686318  0.68904560  1
  Br  Br50  1  0.08849887  0.65314497  0.68903510  1
  Br  Br51  1  0.91150137  0.15314249  0.81096493  1
  Br  Br52  1  0.08850395  0.34685857  0.81095818  1
  Br  Br53  1  0.68903665  0.91149829  0.84685346  1
  Br  Br54  1  0.31095477  0.58850337  0.84686109  1
  Br  Br55  1  0.34685925  0.31095643  0.91150234  1
  Br  Br56  1  0.84685368  0.18903781  0.08850772  1
  Br  Br57  1  0.41149662  0.34685767  0.18904218  1
  Br  Br58  1  0.41149501  0.15313805  0.68904406  1
  Br  Br59  1  0.81096311  0.58850107  0.65314347  1
  Br  Br60  1  0.41150092  0.84685368  0.81096420  1
  Br  Br61  1  0.58849959  0.34685526  0.68903742  1
  Br  Br62  1  0.58850273  0.65313971  0.81095358  1
  Br  Br63  1  0.18904549  0.91149729  0.65313521  1
  Br  Br64  1  0.81096259  0.41149708  0.84686085  1
  Br  Br65  1  0.31096049  0.91149905  0.34686195  1
  Br  Br66  1  0.68903638  0.58850328  0.34685166  1
  Br  Br67  1  0.15314151  0.31096163  0.08849928  1
  Br  Br68  1  0.65314604  0.31096295  0.41149531  1
  Br  Br69  1  0.68903696  0.08850143  0.65313811  1
  Br  Br70  1  0.31096150  0.41149653  0.65314693  1
  Br  Br71  1  0.84685608  0.68904078  0.91150046  1
  Br  Br72  1  0.84685287  0.31096039  0.58850731  1
  Br  Br73  1  0.15314055  0.18904399  0.58849721  1
  Br  Br74  1  0.18903719  0.08850109  0.84685201  1
  Br  Br75  1  0.65314368  0.81095775  0.58850149  1
  Br  Br76  1  0.65314621  0.18903759  0.91149235  1
  Br  Br77  1  0.58849976  0.15314578  0.18903440  1
  Br  Br78  1  0.41150031  0.65314414  0.31096819  1
  Br  Br79  1  0.58850403  0.84686358  0.31096043  1
  Br  Br80  1  0.18904013  0.41150042  0.34685433  1
  Br  Br81  1  0.81095631  0.08850171  0.34686220  1
  Br  Br82  1  0.18903955  0.58850367  0.15314104  1
  Br  Br83  1  0.81096284  0.91149720  0.15314917  1
  Br  Br84  1  0.15314337  0.68903996  0.41149191  1
  Br  Br85  1  0.84685990  0.81095427  0.41150087  1
  Br  Br86  1  0.34685977  0.18904145  0.41150040  1
  Br  Br87  1  0.34685656  0.81096057  0.08850717  1
  Br  Br88  1  0.65314000  0.68904594  0.08849624  1
  Br  Br89  1  0.15314442  0.81096239  0.91149313  1
  Br  Br90  1  0.08850524  0.15314178  0.31095469  1
  Br  Br91  1  0.91150033  0.34685350  0.31096682  1
  Br  Br92  1  0.08850009  0.84685612  0.18903341  1
  Br  Br93  1  0.91149581  0.65314085  0.18903960  1
  Br  Br94  1  0.31096009  0.08850007  0.15314654  1
  Br  Br95  1  0.68904187  0.41149867  0.15314102  1
