# generated using pymatgen
data_NaI
_symmetry_space_group_name_H-M   'P 1'
_cell_length_a   8.04060418
_cell_length_b   8.03084544
_cell_length_c   11.53824692
_cell_angle_alpha   90.00000829
_cell_angle_beta   90.00000764
_cell_angle_gamma   120.11925389
_symmetry_Int_Tables_number   1
_chemical_formula_structural   NaI
_chemical_formula_sum   'Na6 I6'
_cell_volume   644.46193695
_cell_formula_units_Z   6
loop_
 _symmetry_equiv_pos_site_id
 _symmetry_equiv_pos_as_xyz
  1  'x, y, z'
loop_
 _atom_site_type_symbol
 _atom_site_label
 _atom_site_symmetry_multiplicity
 _atom_site_fract_x
 _atom_site_fract_y
 _atom_site_fract_z
 _atom_site_occupancy
  Na  Na0  1  0.53073069  0.53278609  0.05669386  1
  Na  Na1  1  0.99789171  0.53054805  0.22367248  1
  Na  Na2  1  0.00210798  0.46945126  0.72367254  1
  Na  Na3  1  0.53194168  0.00152695  0.88814221  1
  Na  Na4  1  0.46805902  0.99847333  0.38814212  1
  Na  Na5  1  0.46926885  0.46721372  0.55669365  1
  I  I6  1  0.58084986  0.41718659  0.30578091  1
  I  I7  1  0.16493553  0.57964331  0.47221279  1
  I  I8  1  0.83506426  0.42035639  0.97221280  1
  I  I9  1  0.41541675  0.83583619  0.13783384  1
  I  I10  1  0.58458272  0.16416384  0.63783379  1
  I  I11  1  0.41915094  0.58281427  0.80578096  1
