# generated using pymatgen
data_LiI
_symmetry_space_group_name_H-M   'P 1'
_cell_length_a   9.77200981
_cell_length_b   9.77375113
_cell_length_c   11.59133314
_cell_angle_alpha   90.00006035
_cell_angle_beta   89.99995220
_cell_angle_gamma   89.97750649
_symmetry_Int_Tables_number   1
_chemical_formula_structural   LiI
_chemical_formula_sum   'Li16 I16'
_cell_volume   1107.07877610
_cell_formula_units_Z   16
loop_
 _symmetry_equiv_pos_site_id
 _symmetry_equiv_pos_as_xyz
  1  'x, y, z'
loop_
 _atom_site_type_symbol
 _atom_site_label
 _atom_site_symmetry_multiplicity
 _atom_site_fract_x
 _atom_site_fract_y
 _atom_site_fract_z
 _atom_site_occupancy
  Li  Li0  1  0.23155027  0.65281821  0.87968082  1
  Li  Li1  1  0.84721399  0.73158127  0.62029820  1
  Li  Li2  1  0.23155819  0.15280481  0.37031551  1
  Li  Li3  1  0.76844730  0.34718580  0.87968524  1
  Li  Li4  1  0.15279904  0.26842303  0.62030379  1
  Li  Li5  1  0.34721503  0.73158049  0.12970001  1
  Li  Li6  1  0.65278784  0.26842182  0.12969893  1
  Li  Li7  1  0.84720584  0.23157518  0.62970199  1
  Li  Li8  1  0.15278787  0.76842304  0.62970468  1
  Li  Li9  1  0.26844877  0.84718836  0.37968683  1
  Li  Li10  1  0.65278098  0.76842070  0.12029100  1
  Li  Li11  1  0.73155496  0.15280758  0.37968690  1
  Li  Li12  1  0.34721173  0.23157565  0.12029822  1
  Li  Li13  1  0.73154755  0.65282347  0.87032033  1
  Li  Li14  1  0.26844810  0.34718846  0.87031142  1
  Li  Li15  1  0.76844861  0.84718624  0.37031827  1
  I  I16  1  0.78725223  0.01290920  0.17701486  1
  I  I17  1  0.48715958  0.28723159  0.32297885  1
  I  I18  1  0.78725024  0.51289795  0.07298566  1
  I  I19  1  0.21275019  0.98710643  0.17701815  1
  I  I20  1  0.51284322  0.71276681  0.32297958  1
  I  I21  1  0.98715077  0.28723578  0.42701521  1
  I  I22  1  0.01284040  0.71276891  0.42701921  1
  I  I23  1  0.48716395  0.78722755  0.92702606  1
  I  I24  1  0.51284390  0.21276973  0.92702201  1
  I  I25  1  0.71274663  0.48708872  0.67700814  1
  I  I26  1  0.01283969  0.21276869  0.82298133  1
  I  I27  1  0.28724607  0.51289171  0.67701531  1
  I  I28  1  0.98715508  0.78723003  0.82297952  1
  I  I29  1  0.28725068  0.01290452  0.57298316  1
  I  I30  1  0.71275429  0.98711019  0.57297988  1
  I  I31  1  0.21274699  0.48708812  0.07299093  1
