# generated using pymatgen
data_LiBr
_symmetry_space_group_name_H-M   'P 1'
_cell_length_a   3.89092528
_cell_length_b   3.89094125
_cell_length_c   11.01990325
_cell_angle_alpha   89.99989235
_cell_angle_beta   90.00012727
_cell_angle_gamma   90.00000560
_symmetry_Int_Tables_number   1
_chemical_formula_structural   LiBr
_chemical_formula_sum   'Li4 Br4'
_cell_volume   166.83430076
_cell_formula_units_Z   4
loop_
 _symmetry_equiv_pos_site_id
 _symmetry_equiv_pos_as_xyz
  1  'x, y, z'
loop_
 _atom_site_type_symbol
 _atom_site_label
 _atom_site_symmetry_multiplicity
 _atom_site_fract_x
 _atom_site_fract_y
 _atom_site_fract_z
 _atom_site_occupancy
  Li  Li0  1  0.49701210  -0.00249254  0.78755235  1
  Li  Li1  1  -0.00249512  0.50298854  0.03755404  1
  Li  Li2  1  0.50299056  0.00249405  0.28755328  1
  Li  Li3  1  0.00249340  0.49701014  0.53755347  1
  Br  Br4  1  0.49942702  0.00156425  0.03615241  1
  Br  Br5  1  0.00156550  0.50057127  0.28615277  1
  Br  Br6  1  0.50056993  -0.00156486  0.53615305  1
  Br  Br7  1  -0.00156339  0.49942915  0.78615324  1
