# generated using pymatgen
data_LiBr
_symmetry_space_group_name_H-M   'P 1'
_cell_length_a   3.90694918
_cell_length_b   5.53732307
_cell_length_c   7.64554448
_cell_angle_alpha   89.99990789
_cell_angle_beta   90.42187517
_cell_angle_gamma   89.99994923
_symmetry_Int_Tables_number   1
_chemical_formula_structural   LiBr
_chemical_formula_sum   'Li4 Br4'
_cell_volume   165.39953018
_cell_formula_units_Z   4
loop_
 _symmetry_equiv_pos_site_id
 _symmetry_equiv_pos_as_xyz
  1  'x, y, z'
loop_
 _atom_site_type_symbol
 _atom_site_label
 _atom_site_symmetry_multiplicity
 _atom_site_fract_x
 _atom_site_fract_y
 _atom_site_fract_z
 _atom_site_occupancy
  Li  Li0  1  0.74943882  0.25027194  0.12570257  1
  Li  Li1  1  0.25055936  0.75027160  0.37429769  1
  Li  Li2  1  0.25056066  0.74972792  0.87429673  1
  Li  Li3  1  0.74944185  0.24972835  0.62570207  1
  Br  Br4  1  0.24987059  0.24996663  0.37487835  1
  Br  Br5  1  0.75012815  0.74996697  0.12512391  1
  Br  Br6  1  0.75012844  0.75003339  0.62512235  1
  Br  Br7  1  0.24987213  0.25003320  0.87487633  1
