# generated using pymatgen
data_LiBr
_symmetry_space_group_name_H-M   'P 1'
_cell_length_a   7.16039929
_cell_length_b   3.75501109
_cell_length_c   6.53502185
_cell_angle_alpha   90.00001971
_cell_angle_beta   90.00002066
_cell_angle_gamma   89.99998866
_symmetry_Int_Tables_number   1
_chemical_formula_structural   LiBr
_chemical_formula_sum   'Li4 Br4'
_cell_volume   175.70960765
_cell_formula_units_Z   4
loop_
 _symmetry_equiv_pos_site_id
 _symmetry_equiv_pos_as_xyz
  1  'x, y, z'
loop_
 _atom_site_type_symbol
 _atom_site_label
 _atom_site_symmetry_multiplicity
 _atom_site_fract_x
 _atom_site_fract_y
 _atom_site_fract_z
 _atom_site_occupancy
  Li  Li0  1  0.81075815  0.74848169  0.36565163  1
  Li  Li1  1  0.31075813  0.25151861  0.36565284  1
  Li  Li2  1  0.18924270  0.25151800  0.86565354  1
  Li  Li3  1  0.68924288  0.74848206  0.86565211  1
  Br  Br4  1  0.88302526  0.24839626  0.07892177  1
  Br  Br5  1  0.38302583  0.75160354  0.07892196  1
  Br  Br6  1  0.11697325  0.75160174  0.57892012  1
  Br  Br7  1  0.61697381  0.24839810  0.57892034  1
