# generated using pymatgen
data_LiI
_symmetry_space_group_name_H-M   'P 1'
_cell_length_a   12.47328350
_cell_length_b   12.47327805
_cell_length_c   9.04245388
_cell_angle_alpha   89.99996520
_cell_angle_beta   90.00007647
_cell_angle_gamma   120.01183747
_symmetry_Int_Tables_number   1
_chemical_formula_structural   LiI
_chemical_formula_sum   'Li18 I18'
_cell_volume   1218.22221513
_cell_formula_units_Z   18
loop_
 _symmetry_equiv_pos_site_id
 _symmetry_equiv_pos_as_xyz
  1  'x, y, z'
loop_
 _atom_site_type_symbol
 _atom_site_label
 _atom_site_symmetry_multiplicity
 _atom_site_fract_x
 _atom_site_fract_y
 _atom_site_fract_z
 _atom_site_occupancy
  Li  Li0  1  0.72834581  0.66721697  0.49864042  1
  Li  Li1  1  0.72839030  0.06097976  -0.00124859  1
  Li  Li2  1  0.66589642  0.93838044  0.66523900  1
  Li  Li3  1  0.27231799  0.33400018  0.66524305  1
  Li  Li4  1  0.99928970  0.39463692  0.83177763  1
  Li  Li5  1  0.33274669  0.06121740  0.49875364  1
  Li  Li6  1  0.27245168  0.93833483  0.16522515  1
  Li  Li7  1  0.66601011  0.72769053  0.16523714  1
  Li  Li8  1  -0.06097972  0.27161149  0.49875541  1
  Li  Li9  1  -0.06122243  0.66724990  -0.00125219  1
  Li  Li10  1  0.06161646  0.33410859  0.16524403  1
  Li  Li11  1  0.06166319  0.72755308  0.66522209  1
  Li  Li12  1  0.60542870  0.60467702  0.83174909  1
  Li  Li13  1  0.60536180  0.00070731  0.33177628  1
  Li  Li14  1  0.33277653  0.27165457  -0.00135298  1
  Li  Li15  1  0.99932909  0.60484353  0.33164742  1
  Li  Li16  1  0.39515576  0.00066995  0.83165137  1
  Li  Li17  1  0.39532337  0.39456839  0.33175136  1
  I  I18  1  0.91025988  0.47098474  0.59379666  1
  I  I19  1  0.91018428  0.43921566  0.09389607  1
  I  I20  1  0.86222923  0.75633667  0.76068397  1
  I  I21  1  0.89411750  0.13775039  0.76075458  1
  I  I22  1  0.19562551  0.77253982  0.92738630  1
  I  I23  1  0.52895880  0.43915594  0.59386495  1
  I  I24  1  0.89420840  0.75647425  0.26077266  1
  I  I25  1  0.86225050  0.10588492  0.26075528  1
  I  I26  1  0.56078180  0.08980802  0.59389595  1
  I  I27  1  0.56084219  0.47104372  0.09386260  1
  I  I28  1  0.24366552  0.13776860  0.26068859  1
  I  I29  1  0.24352781  0.10579666  0.76077607  1
  I  I30  1  0.22742533  0.42308476  0.92743383  1
  I  I31  1  0.22745973  0.80436999  0.42738763  1
  I  I32  1  0.52901628  0.08973842  0.09379560  1
  I  I33  1  0.19574334  0.42311619  0.42736892  1
  I  I34  1  0.57688359  0.80425779  0.92736503  1
  I  I35  1  0.57691887  0.77257258  0.42742692  1
