# generated using pymatgen
data_NaBr
_symmetry_space_group_name_H-M   'P 1'
_cell_length_a   6.03609644
_cell_length_b   6.03919157
_cell_length_c   6.03433187
_cell_angle_alpha   89.99998879
_cell_angle_beta   90.00000779
_cell_angle_gamma   89.99999966
_symmetry_Int_Tables_number   1
_chemical_formula_structural   NaBr
_chemical_formula_sum   'Na4 Br4'
_cell_volume   219.97036100
_cell_formula_units_Z   4
loop_
 _symmetry_equiv_pos_site_id
 _symmetry_equiv_pos_as_xyz
  1  'x, y, z'
loop_
 _atom_site_type_symbol
 _atom_site_label
 _atom_site_symmetry_multiplicity
 _atom_site_fract_x
 _atom_site_fract_y
 _atom_site_fract_z
 _atom_site_occupancy
  Na  Na0  1  0.00007008  0.25020069  0.86990778  1
  Na  Na1  1  0.50007007  0.74979929  0.86990812  1
  Na  Na2  1  -0.00006993  0.74979937  0.36991169  1
  Na  Na3  1  0.49993007  0.25020063  0.36991135  1
  Br  Br4  1  0.00030486  0.24983985  0.37005448  1
  Br  Br5  1  0.50030482  0.75016017  0.37005398  1
  Br  Br6  1  -0.00030498  0.75016032  0.87005269  1
  Br  Br7  1  0.49969501  0.24983968  0.87005319  1
