# generated using pymatgen
data_KI
_symmetry_space_group_name_H-M   'P 1'
_cell_length_a   8.67743771
_cell_length_b   4.38434588
_cell_length_c   8.66739489
_cell_angle_alpha   89.99907924
_cell_angle_beta   89.99966910
_cell_angle_gamma   89.99999547
_symmetry_Int_Tables_number   1
_chemical_formula_structural   KI
_chemical_formula_sum   'K4 I4'
_cell_volume   329.75007039
_cell_formula_units_Z   4
loop_
 _symmetry_equiv_pos_site_id
 _symmetry_equiv_pos_as_xyz
  1  'x, y, z'
loop_
 _atom_site_type_symbol
 _atom_site_label
 _atom_site_symmetry_multiplicity
 _atom_site_fract_x
 _atom_site_fract_y
 _atom_site_fract_z
 _atom_site_occupancy
  K  K0  1  -0.00166204  0.00400782  0.11337164  1
  K  K1  1  0.49833793  -0.00400787  0.11337136  1
  K  K2  1  0.00166203  -0.00400751  0.61337138  1
  K  K3  1  0.50166206  0.00400818  0.61337161  1
  I  I4  1  0.75051263  0.50058879  0.86190423  1
  I  I5  1  0.25051285  0.49941089  0.86190412  1
  I  I6  1  0.24948715  0.49941101  0.36190413  1
  I  I7  1  0.74948739  0.50058869  0.36190421  1
