# generated using pymatgen
data_LiI
_symmetry_space_group_name_H-M   'P 1'
_cell_length_a   7.39030865
_cell_length_b   7.39030949
_cell_length_c   4.88332908
_cell_angle_alpha   89.99963747
_cell_angle_beta   90.00006652
_cell_angle_gamma   89.99996069
_symmetry_Int_Tables_number   1
_chemical_formula_structural   LiI
_chemical_formula_sum   'Li4 I4'
_cell_volume   266.71116348
_cell_formula_units_Z   4
loop_
 _symmetry_equiv_pos_site_id
 _symmetry_equiv_pos_as_xyz
  1  'x, y, z'
loop_
 _atom_site_type_symbol
 _atom_site_label
 _atom_site_symmetry_multiplicity
 _atom_site_fract_x
 _atom_site_fract_y
 _atom_site_fract_z
 _atom_site_occupancy
  Li  Li0  1  0.33011030  0.83002646  0.25131316  1
  Li  Li1  1  0.66989004  0.16997374  0.25131271  1
  Li  Li2  1  0.16997424  0.33010973  0.74868482  1
  Li  Li3  1  0.83002560  0.66989025  0.74868832  1
  I  I4  1  0.79538335  0.29508476  0.75048201  1
  I  I5  1  0.20461650  0.70491527  0.75048458  1
  I  I6  1  0.70491521  0.79538330  0.24951706  1
  I  I7  1  0.29508476  0.20461650  0.24951734  1
