# generated using pymatgen
data_LiBr
_symmetry_space_group_name_H-M   'P 1'
_cell_length_a   4.17185613
_cell_length_b   4.17184795
_cell_length_c   10.17517954
_cell_angle_alpha   89.99978014
_cell_angle_beta   90.00054254
_cell_angle_gamma   120.00190401
_symmetry_Int_Tables_number   1
_chemical_formula_structural   LiBr
_chemical_formula_sum   'Li3 Br3'
_cell_volume   153.36355764
_cell_formula_units_Z   3
loop_
 _symmetry_equiv_pos_site_id
 _symmetry_equiv_pos_as_xyz
  1  'x, y, z'
loop_
 _atom_site_type_symbol
 _atom_site_label
 _atom_site_symmetry_multiplicity
 _atom_site_fract_x
 _atom_site_fract_y
 _atom_site_fract_z
 _atom_site_occupancy
  Li  Li0  1  0.33229354  0.33263764  0.06891466  1
  Li  Li1  1  0.66738563  -0.00034316  0.40224823  1
  Li  Li2  1  0.00031979  0.66769606  0.73557980  1
  Br  Br3  1  0.66587317  -0.00026499  0.15138268  1
  Br  Br4  1  0.00029158  0.66615182  0.48471635  1
  Br  Br5  1  0.33383630  0.33412262  0.81804917  1
