# generated using pymatgen
data_LiBr
_symmetry_space_group_name_H-M   'P 1'
_cell_length_a   3.94737759
_cell_length_b   3.94719813
_cell_length_c   10.61868230
_cell_angle_alpha   89.99999779
_cell_angle_beta   90.00000378
_cell_angle_gamma   90.00875229
_symmetry_Int_Tables_number   1
_chemical_formula_structural   LiBr
_chemical_formula_sum   'Li4 Br4'
_cell_volume   165.45055191
_cell_formula_units_Z   4
loop_
 _symmetry_equiv_pos_site_id
 _symmetry_equiv_pos_as_xyz
  1  'x, y, z'
loop_
 _atom_site_type_symbol
 _atom_site_label
 _atom_site_symmetry_multiplicity
 _atom_site_fract_x
 _atom_site_fract_y
 _atom_site_fract_z
 _atom_site_occupancy
  Li  Li0  1  0.49824739  0.00005408  0.90711313  1
  Li  Li1  1  0.00029234  0.50112780  0.15723410  1
  Li  Li2  1  0.50175246  -0.00005414  0.40711271  1
  Li  Li3  1  -0.00029202  0.49887185  0.65723413  1
  Br  Br4  1  0.49988564  0.00062466  0.15702473  1
  Br  Br5  1  0.00069513  0.50004307  0.40724765  1
  Br  Br6  1  0.50011437  -0.00062448  0.65702461  1
  Br  Br7  1  -0.00069530  0.49995715  0.90724755  1
