# generated using pymatgen
data_LiI
_symmetry_space_group_name_H-M   'P 1'
_cell_length_a   8.24883076
_cell_length_b   8.25021505
_cell_length_c   11.26460145
_cell_angle_alpha   90.00184189
_cell_angle_beta   89.99753412
_cell_angle_gamma   120.11246621
_symmetry_Int_Tables_number   1
_chemical_formula_structural   LiI
_chemical_formula_sum   'Li6 I6'
_cell_volume   663.14855662
_cell_formula_units_Z   6
loop_
 _symmetry_equiv_pos_site_id
 _symmetry_equiv_pos_as_xyz
  1  'x, y, z'
loop_
 _atom_site_type_symbol
 _atom_site_label
 _atom_site_symmetry_multiplicity
 _atom_site_fract_x
 _atom_site_fract_y
 _atom_site_fract_z
 _atom_site_occupancy
  Li  Li0  1  0.37045009  0.73448058  0.85306099  1
  Li  Li1  1  0.63559508  0.37081276  0.68637857  1
  Li  Li2  1  0.36441036  0.62919067  0.18638516  1
  Li  Li3  1  0.73436754  0.36389731  0.01974304  1
  Li  Li4  1  0.26562995  0.63610483  0.51973906  1
  Li  Li5  1  0.62955031  0.26551660  0.35306211  1
  I  I6  1  0.55334149  0.44316767  0.18417471  1
  I  I7  1  0.10997849  0.55252243  0.01759433  1
  I  I8  1  0.89001942  0.44747719  0.51759763  1
  I  I9  1  0.44444592  0.88996826  0.35072239  1
  I  I10  1  0.55555182  0.11002838  0.85072301  1
  I  I11  1  0.44665954  0.55683333  0.68417965  1
