# generated using pymatgen
data_LiI
_symmetry_space_group_name_H-M   'P 1'
_cell_length_a   14.76638211
_cell_length_b   14.76638037
_cell_length_c   4.87346100
_cell_angle_alpha   89.99998012
_cell_angle_beta   89.99997927
_cell_angle_gamma   90.00001152
_symmetry_Int_Tables_number   1
_chemical_formula_structural   LiI
_chemical_formula_sum   'Li16 I16'
_cell_volume   1062.63875095
_cell_formula_units_Z   16
loop_
 _symmetry_equiv_pos_site_id
 _symmetry_equiv_pos_as_xyz
  1  'x, y, z'
loop_
 _atom_site_type_symbol
 _atom_site_label
 _atom_site_symmetry_multiplicity
 _atom_site_fract_x
 _atom_site_fract_y
 _atom_site_fract_z
 _atom_site_occupancy
  Li  Li0  1  0.42604570  0.19662691  0.73777059  1
  Li  Li1  1  0.69662655  0.42604534  -0.01222934  1
  Li  Li2  1  0.57395440  0.19662686  0.23776993  1
  Li  Li3  1  0.57395433  0.80337300  0.73777102  1
  Li  Li4  1  0.30337302  0.57395424  -0.01222890  1
  Li  Li5  1  0.80337305  0.92604570  -0.01222823  1
  Li  Li6  1  0.19662687  0.07395430  -0.01222987  1
  Li  Li7  1  0.30337299  0.42604577  0.48777179  1
  Li  Li8  1  0.69662649  0.57395468  0.48776995  1
  Li  Li9  1  0.07395429  0.30337299  0.23777100  1
  Li  Li10  1  0.80337305  0.07395431  0.48777110  1
  Li  Li11  1  0.92604574  0.69662700  0.23777073  1
  Li  Li12  1  0.19662694  0.92604570  0.48777081  1
  Li  Li13  1  0.07395431  0.69662693  0.73777005  1
  Li  Li14  1  0.92604573  0.30337302  0.73777167  1
  Li  Li15  1  0.42604576  0.80337299  0.23777170  1
  I  I16  1  0.88492327  0.62348411  0.73014374  1
  I  I17  1  0.12348410  0.88492317  0.98014400  1
  I  I18  1  0.11507691  0.62348411  0.23014329  1
  I  I19  1  0.11507691  0.37651590  0.73014388  1
  I  I20  1  0.87651589  0.11507689  0.98014409  1
  I  I21  1  0.37651594  0.38492319  0.98014458  1
  I  I22  1  0.62348411  0.61507693  0.98014351  1
  I  I23  1  0.87651594  0.88492320  0.48014459  1
  I  I24  1  0.12348415  0.11507691  0.48014350  1
  I  I25  1  0.61507691  0.87651587  0.23014390  1
  I  I26  1  0.37651591  0.61507688  0.48014406  1
  I  I27  1  0.38492327  0.12348406  0.23014364  1
  I  I28  1  0.62348406  0.38492313  0.48014403  1
  I  I29  1  0.61507690  0.12348409  0.73014317  1
  I  I30  1  0.38492326  0.87651591  0.73014437  1
  I  I31  1  0.88492326  0.37651592  0.23014432  1
