# generated using pymatgen
data_NaI
_symmetry_space_group_name_H-M   'P 1'
_cell_length_a   8.91054046
_cell_length_b   4.19781669
_cell_length_c   7.73511023
_cell_angle_alpha   90.01124994
_cell_angle_beta   90.00136182
_cell_angle_gamma   89.99619311
_symmetry_Int_Tables_number   1
_chemical_formula_structural   NaI
_chemical_formula_sum   'Na4 I4'
_cell_volume   289.33036454
_cell_formula_units_Z   4
loop_
 _symmetry_equiv_pos_site_id
 _symmetry_equiv_pos_as_xyz
  1  'x, y, z'
loop_
 _atom_site_type_symbol
 _atom_site_label
 _atom_site_symmetry_multiplicity
 _atom_site_fract_x
 _atom_site_fract_y
 _atom_site_fract_z
 _atom_site_occupancy
  Na  Na0  1  0.62832183  0.00774073  0.14863505  1
  Na  Na1  1  0.12828075  -0.00773758  0.14861168  1
  Na  Na2  1  0.37171739  -0.00773507  0.64857811  1
  Na  Na3  1  0.87168256  0.00773854  0.64860727  1
  I  I4  1  0.87578413  0.52047098  0.31428838  1
  I  I5  1  0.37578257  0.47951850  0.31427997  1
  I  I6  1  0.12421402  0.47947252  0.81428208  1
  I  I7  1  0.62421676  0.52053139  0.81429162  1
