# generated using pymatgen
data_LiBr
_symmetry_space_group_name_H-M   'P 1'
_cell_length_a   4.18009011
_cell_length_b   4.17770742
_cell_length_c   10.09153193
_cell_angle_alpha   89.91403548
_cell_angle_beta   90.03671390
_cell_angle_gamma   120.01365105
_symmetry_Int_Tables_number   1
_chemical_formula_structural   LiBr
_chemical_formula_sum   'Li3 Br3'
_cell_volume   152.59881006
_cell_formula_units_Z   3
loop_
 _symmetry_equiv_pos_site_id
 _symmetry_equiv_pos_as_xyz
  1  'x, y, z'
loop_
 _atom_site_type_symbol
 _atom_site_label
 _atom_site_symmetry_multiplicity
 _atom_site_fract_x
 _atom_site_fract_y
 _atom_site_fract_z
 _atom_site_occupancy
  Li  Li0  1  0.66744029  0.66741637  0.27005137  1
  Li  Li1  1  0.33254674  0.00000445  0.93671008  1
  Li  Li2  1  0.00022295  0.33243092  0.60315743  1
  Br  Br3  1  -0.00110019  0.33336579  0.85494402  1
  Br  Br4  1  0.66677093  0.66571662  0.52163613  1
  Br  Br5  1  0.33411927  0.00106585  0.18852718  1
