# generated using pymatgen
data_NaI
_symmetry_space_group_name_H-M   'P 1'
_cell_length_a   5.15716199
_cell_length_b   8.94890349
_cell_length_c   9.33977799
_cell_angle_alpha   89.99994488
_cell_angle_beta   122.11615509
_cell_angle_gamma   90.00081051
_symmetry_Int_Tables_number   1
_chemical_formula_structural   NaI
_chemical_formula_sum   'Na4 I4'
_cell_volume   365.07847828
_cell_formula_units_Z   4
loop_
 _symmetry_equiv_pos_site_id
 _symmetry_equiv_pos_as_xyz
  1  'x, y, z'
loop_
 _atom_site_type_symbol
 _atom_site_label
 _atom_site_symmetry_multiplicity
 _atom_site_fract_x
 _atom_site_fract_y
 _atom_site_fract_z
 _atom_site_occupancy
  Na  Na0  1  0.89933414  0.07721270  0.74317354  1
  Na  Na1  1  0.39933401  0.57721267  0.74317353  1
  Na  Na2  1  0.89932207  0.92278668  0.24317767  1
  Na  Na3  1  0.39932194  0.42278662  0.24317767  1
  I  I4  1  0.00448584  0.58894779  0.35164296  1
  I  I5  1  0.50448587  0.08894780  0.35164292  1
  I  I6  1  0.00448516  0.41105288  0.85164411  1
  I  I7  1  0.50448527  0.91105287  0.85164412  1
