# generated using pymatgen
data_LiBr
_symmetry_space_group_name_H-M   'P 1'
_cell_length_a   5.50573478
_cell_length_b   5.50254409
_cell_length_c   5.49982968
_cell_angle_alpha   89.99999177
_cell_angle_beta   90.13422742
_cell_angle_gamma   89.99999895
_symmetry_Int_Tables_number   1
_chemical_formula_structural   LiBr
_chemical_formula_sum   'Li4 Br4'
_cell_volume   166.61989922
_cell_formula_units_Z   4
loop_
 _symmetry_equiv_pos_site_id
 _symmetry_equiv_pos_as_xyz
  1  'x, y, z'
loop_
 _atom_site_type_symbol
 _atom_site_label
 _atom_site_symmetry_multiplicity
 _atom_site_fract_x
 _atom_site_fract_y
 _atom_site_fract_z
 _atom_site_occupancy
  Li  Li0  1  0.18906206  0.24934547  0.91672424  1
  Li  Li1  1  0.68904870  0.74934929  0.91670787  1
  Li  Li2  1  0.18904904  0.75065078  0.41670658  1
  Li  Li3  1  0.68906131  0.25065439  0.41672238  1
  Br  Br4  1  0.19053376  0.25003097  0.41727022  1
  Br  Br5  1  0.69053117  0.75003156  0.41726835  1
  Br  Br6  1  0.19053120  0.74996846  0.91726808  1
  Br  Br7  1  0.69053385  0.24996906  0.91726992  1
