# generated using pymatgen
data_KI
_symmetry_space_group_name_H-M   'P 1'
_cell_length_a   9.94877322
_cell_length_b   8.60255282
_cell_length_c   8.68932891
_cell_angle_alpha   90.00000008
_cell_angle_beta   89.99999778
_cell_angle_gamma   90.00000061
_symmetry_Int_Tables_number   1
_chemical_formula_structural   KI
_chemical_formula_sum   'K8 I8'
_cell_volume   743.67488614
_cell_formula_units_Z   8
loop_
 _symmetry_equiv_pos_site_id
 _symmetry_equiv_pos_as_xyz
  1  'x, y, z'
loop_
 _atom_site_type_symbol
 _atom_site_label
 _atom_site_symmetry_multiplicity
 _atom_site_fract_x
 _atom_site_fract_y
 _atom_site_fract_z
 _atom_site_occupancy
  K  K0  1  0.62458017  0.75058506  -0.00001419  1
  K  K1  1  0.62458016  0.74941492  0.49998591  1
  K  K2  1  0.12458017  0.74941488  0.00001419  1
  K  K3  1  0.87541984  0.24941485  0.49998591  1
  K  K4  1  0.37541984  0.25058508  0.50001409  1
  K  K5  1  0.87541983  0.25058512  -0.00001419  1
  K  K6  1  0.12458016  0.75058514  0.50001409  1
  K  K7  1  0.37541983  0.24941494  0.00001419  1
  I  I8  1  0.12508769  0.41613278  0.25002468  1
  I  I9  1  0.12508767  0.08386722  0.75002468  1
  I  I10  1  0.62508770  0.08386722  0.74997536  1
  I  I11  1  0.37491233  0.58386722  0.75002465  1
  I  I12  1  0.87491233  -0.08386722  0.24997532  1
  I  I13  1  0.37491231  -0.08386722  0.25002464  1
  I  I14  1  0.62508767  0.41613277  0.24997536  1
  I  I15  1  0.87491231  0.58386722  0.74997533  1
