# generated using pymatgen
data_KI
_symmetry_space_group_name_H-M   'P 1'
_cell_length_a   10.55350477
_cell_length_b   10.55349101
_cell_length_c   7.11678620
_cell_angle_alpha   89.99995412
_cell_angle_beta   90.00005511
_cell_angle_gamma   120.00003206
_symmetry_Int_Tables_number   1
_chemical_formula_structural   KI
_chemical_formula_sum   'K6 I6'
_cell_volume   686.44740158
_cell_formula_units_Z   6
loop_
 _symmetry_equiv_pos_site_id
 _symmetry_equiv_pos_as_xyz
  1  'x, y, z'
loop_
 _atom_site_type_symbol
 _atom_site_label
 _atom_site_symmetry_multiplicity
 _atom_site_fract_x
 _atom_site_fract_y
 _atom_site_fract_z
 _atom_site_occupancy
  K  K0  1  0.33336139  0.00011136  0.81000272  1
  K  K1  1  -0.00011355  0.33324979  0.81000601  1
  K  K2  1  0.33340137  0.33321142  0.30999635  1
  K  K3  1  0.66679255  0.00019024  0.30999598  1
  K  K4  1  -0.00018830  0.66660423  0.30999258  1
  K  K5  1  0.66674648  0.66663294  0.81000631  1
  I  I6  1  0.66704909  0.00007091  0.81112519  1
  I  I7  1  -0.00006927  0.66698084  0.81112412  1
  I  I8  1  0.66711022  0.66704371  0.31112144  1
  I  I9  1  0.33295545  0.00006401  0.31111940  1
  I  I10  1  -0.00006554  0.33289221  0.31112050  1
  I  I11  1  0.33302010  0.33294835  0.81112638  1
