# generated using pymatgen
data_LiBr
_symmetry_space_group_name_H-M   'P 1'
_cell_length_a   11.54856931
_cell_length_b   11.54854788
_cell_length_c   8.52435508
_cell_angle_alpha   90.00412134
_cell_angle_beta   89.99584904
_cell_angle_gamma   120.01201652
_symmetry_Int_Tables_number   1
_chemical_formula_structural   LiBr
_chemical_formula_sum   'Li18 Br18'
_cell_volume   984.45331600
_cell_formula_units_Z   18
loop_
 _symmetry_equiv_pos_site_id
 _symmetry_equiv_pos_as_xyz
  1  'x, y, z'
loop_
 _atom_site_type_symbol
 _atom_site_label
 _atom_site_symmetry_multiplicity
 _atom_site_fract_x
 _atom_site_fract_y
 _atom_site_fract_z
 _atom_site_occupancy
  Li  Li0  1  0.03372209  0.40311218  0.68964947  1
  Li  Li1  1  0.03366670  0.63059033  0.18963918  1
  Li  Li2  1  0.93036676  0.63275228  0.85604180  1
  Li  Li3  1  0.70237505  0.06954342  0.85607545  1
  Li  Li4  1  0.26333629  -0.03583088  0.02260808  1
  Li  Li5  1  0.59687263  0.63059193  0.68956742  1
  Li  Li6  1  0.70243945  0.63286299  0.35604913  1
  Li  Li7  1  0.93045842  0.29762096  0.35607620  1
  Li  Li8  1  0.36942615  0.96635256  0.68965195  1
  Li  Li9  1  0.36941367  0.40313227  0.18956758  1
  Li  Li10  1  0.36723512  0.06962636  0.35604727  1
  Li  Li11  1  0.36712730  0.29756912  0.85605655  1
  Li  Li12  1  0.03589485  0.29923777  0.02265734  1
  Li  Li13  1  0.03580947  0.73666267  0.52261003  1
  Li  Li14  1  0.59688425  0.96626229  0.18965264  1
  Li  Li15  1  0.26341618  0.29921187  0.52262765  1
  Li  Li16  1  0.70080031  0.73658843  0.02261542  1
  Li  Li17  1  0.70077765  -0.03589321  0.52264198  1
  Br  Br18  1  0.74489110  0.87664819  0.77458251  1
  Br  Br19  1  0.74493173  0.86825708  0.27453884  1
  Br  Br20  1  0.45645205  0.92164559  0.94171450  1
  Br  Br21  1  0.46514548  0.54348778  0.94162810  1
  Br  Br22  1  0.79009336  0.20154337  0.10795482  1
  Br  Br23  1  0.12331314  0.86824070  0.77457701  1
  Br  Br24  1  0.46516558  0.92166904  0.44171901  1
  Br  Br25  1  0.45652648  0.53485351  0.44162746  1
  Br  Br26  1  0.13173448  0.25507339  0.77454478  1
  Br  Br27  1  0.13176100  0.87668217  0.27457757  1
  Br  Br28  1  0.07834339  0.54354563  0.44170595  1
  Br  Br29  1  0.07833054  0.53483911  0.94171053  1
  Br  Br30  1  0.79838580  0.58843870  0.10794692  1
  Br  Br31  1  0.79844839  0.20990481  0.60794821  1
  Br  Br32  1  0.12335810  0.25510396  0.27458491  1
  Br  Br33  1  0.79003573  0.58849623  0.60793147  1
  Br  Br34  1  0.41149957  0.20995797  0.10792484  1
  Br  Br35  1  0.41156175  0.20161947  0.60795464  1
