# generated using pymatgen
data_LiBr
_symmetry_space_group_name_H-M   'P 1'
_cell_length_a   7.09605935
_cell_length_b   7.09673760
_cell_length_c   8.46512123
_cell_angle_alpha   90.00029004
_cell_angle_beta   90.00043698
_cell_angle_gamma   90.00036075
_symmetry_Int_Tables_number   1
_chemical_formula_structural   LiBr
_chemical_formula_sum   'Li8 Br8'
_cell_volume   426.29395003
_cell_formula_units_Z   8
loop_
 _symmetry_equiv_pos_site_id
 _symmetry_equiv_pos_as_xyz
  1  'x, y, z'
loop_
 _atom_site_type_symbol
 _atom_site_label
 _atom_site_symmetry_multiplicity
 _atom_site_fract_x
 _atom_site_fract_y
 _atom_site_fract_z
 _atom_site_occupancy
  Li  Li0  1  0.66861079  0.83014102  0.37528917  1
  Li  Li1  1  0.66981834  0.83135329  0.87529832  1
  Li  Li2  1  0.16861471  0.66985871  0.12468448  1
  Li  Li3  1  0.33018231  0.16864651  0.87531954  1
  Li  Li4  1  0.83138818  0.33013699  0.12470771  1
  Li  Li5  1  0.33138543  0.16985865  0.37531311  1
  Li  Li6  1  0.16981637  0.66864854  0.62468512  1
  Li  Li7  1  0.83018450  0.33135113  0.62470454  1
  Br  Br8  1  0.80783852  0.69154844  0.12538087  1
  Br  Br9  1  0.80837943  0.69210130  0.62538560  1
  Br  Br10  1  0.30783808  0.80844712  0.37459144  1
  Br  Br11  1  0.19162355  0.30790546  0.62540258  1
  Br  Br12  1  0.69216138  0.19155570  0.37462024  1
  Br  Br13  1  0.19215849  0.30844602  0.12540243  1
  Br  Br14  1  0.30838060  0.80790506  0.87459474  1
  Br  Br15  1  0.69161932  0.19209608  0.87462009  1
