# generated using pymatgen
data_LiBr
_symmetry_space_group_name_H-M   'P 1'
_cell_length_a   4.16419264
_cell_length_b   4.16422190
_cell_length_c   10.22501717
_cell_angle_alpha   90.00029992
_cell_angle_beta   89.99967779
_cell_angle_gamma   120.00226704
_symmetry_Int_Tables_number   1
_chemical_formula_structural   LiBr
_chemical_formula_sum   'Li3 Br3'
_cell_volume   153.54986245
_cell_formula_units_Z   3
loop_
 _symmetry_equiv_pos_site_id
 _symmetry_equiv_pos_as_xyz
  1  'x, y, z'
loop_
 _atom_site_type_symbol
 _atom_site_label
 _atom_site_symmetry_multiplicity
 _atom_site_fract_x
 _atom_site_fract_y
 _atom_site_fract_z
 _atom_site_occupancy
  Li  Li0  1  0.33137226  0.00083481  0.66306694  1
  Li  Li1  1  -0.00082531  0.33055031  -0.00359781  1
  Li  Li2  1  0.66944881  0.66860971  0.32972475  1
  Br  Br3  1  0.00233727  0.33511875  0.24578355  1
  Br  Br4  1  0.66486854  0.66721433  0.57911487  1
  Br  Br5  1  0.33279842  -0.00232790  0.91244481  1
