# generated using pymatgen
data_LiI
_symmetry_space_group_name_H-M   'P 1'
_cell_length_a   12.27200550
_cell_length_b   12.27403974
_cell_length_c   8.83812545
_cell_angle_alpha   89.99993132
_cell_angle_beta   90.00006913
_cell_angle_gamma   90.00069163
_symmetry_Int_Tables_number   1
_chemical_formula_structural   LiI
_chemical_formula_sum   'Li16 I16'
_cell_volume   1331.26105724
_cell_formula_units_Z   16
loop_
 _symmetry_equiv_pos_site_id
 _symmetry_equiv_pos_as_xyz
  1  'x, y, z'
loop_
 _atom_site_type_symbol
 _atom_site_label
 _atom_site_symmetry_multiplicity
 _atom_site_fract_x
 _atom_site_fract_y
 _atom_site_fract_z
 _atom_site_occupancy
  Li  Li0  1  0.91467942  0.15460353  0.64300203  1
  Li  Li1  1  0.34538775  0.41466789  0.85700188  1
  Li  Li2  1  0.91523199  0.65476451  0.60720199  1
  Li  Li3  1  0.08531785  0.84539939  0.64300313  1
  Li  Li4  1  0.65461595  0.58533536  0.85700268  1
  Li  Li5  1  0.84522055  0.41521881  0.89278985  1
  Li  Li6  1  0.15477799  0.58478042  0.89279250  1
  Li  Li7  1  0.34521802  0.91521583  0.39279157  1
  Li  Li8  1  0.65477604  0.08477851  0.39279271  1
  Li  Li9  1  0.58532309  0.34539544  0.14300120  1
  Li  Li10  1  0.15461442  0.08533384  0.35700218  1
  Li  Li11  1  0.41468229  0.65459998  0.14300257  1
  Li  Li12  1  0.84538720  0.91466856  0.35700191  1
  Li  Li13  1  0.41522841  0.15476737  0.10720343  1
  Li  Li14  1  0.58476712  0.84523571  0.10720482  1
  Li  Li15  1  0.08477187  0.34523341  0.60720395  1
  I  I16  1  0.26806257  -0.00515778  0.12737083  1
  I  I17  1  0.50516686  0.76805403  0.37262852  1
  I  I18  1  0.26799143  0.49410079  0.12242084  1
  I  I19  1  0.73193586  0.00515854  0.12737099  1
  I  I20  1  0.49483167  0.23194575  0.37262669  1
  I  I21  1  0.00590851  0.76798133  0.37758072  1
  I  I22  1  -0.00590644  0.23202095  0.37758131  1
  I  I23  1  0.50590820  0.26797969  0.87758063  1
  I  I24  1  0.49409277  0.73202004  0.87758165  1
  I  I25  1  0.23193696  0.50515933  0.62737122  1
  I  I26  1  -0.00516900  0.73194465  0.87262706  1
  I  I27  1  0.76806223  0.49484330  0.62737036  1
  I  I28  1  0.00516773  0.26805457  0.87262773  1
  I  I29  1  0.76799127  -0.00589795  0.62242126  1
  I  I30  1  0.23200885  0.00589752  0.62242116  1
  I  I31  1  0.73201056  0.50589667  0.12242061  1
