# generated using pymatgen
data_NaI
_symmetry_space_group_name_H-M   'P 1'
_cell_length_a   7.84897401
_cell_length_b   4.60643323
_cell_length_c   7.73338997
_cell_angle_alpha   89.99598291
_cell_angle_beta   89.99907784
_cell_angle_gamma   89.98953376
_symmetry_Int_Tables_number   1
_chemical_formula_structural   NaI
_chemical_formula_sum   'Na4 I4'
_cell_volume   279.60669954
_cell_formula_units_Z   4
loop_
 _symmetry_equiv_pos_site_id
 _symmetry_equiv_pos_as_xyz
  1  'x, y, z'
loop_
 _atom_site_type_symbol
 _atom_site_label
 _atom_site_symmetry_multiplicity
 _atom_site_fract_x
 _atom_site_fract_y
 _atom_site_fract_z
 _atom_site_occupancy
  Na  Na0  1  0.24999904  0.24770799  0.11983378  1
  Na  Na1  1  0.74998435  0.75229486  0.11982104  1
  Na  Na2  1  0.75001179  0.75229912  0.61981873  1
  Na  Na3  1  0.25000196  0.24770238  0.61982805  1
  I  I4  1  0.41549923  0.74793434  0.86952961  1
  I  I5  1  0.91550591  0.25206712  0.86952701  1
  I  I6  1  0.58450212  0.25205563  0.36952557  1
  I  I7  1  0.08449561  0.74793858  0.36952834  1
