# generated using pymatgen
data_LiI
_symmetry_space_group_name_H-M   'P 1'
_cell_length_a   12.58847120
_cell_length_b   12.58845826
_cell_length_c   8.66911528
_cell_angle_alpha   90.00129219
_cell_angle_beta   89.99869081
_cell_angle_gamma   120.03953424
_symmetry_Int_Tables_number   1
_chemical_formula_structural   LiI
_chemical_formula_sum   'Li18 I18'
_cell_volume   1189.26269299
_cell_formula_units_Z   18
loop_
 _symmetry_equiv_pos_site_id
 _symmetry_equiv_pos_as_xyz
  1  'x, y, z'
loop_
 _atom_site_type_symbol
 _atom_site_label
 _atom_site_symmetry_multiplicity
 _atom_site_fract_x
 _atom_site_fract_y
 _atom_site_fract_z
 _atom_site_occupancy
  Li  Li0  1  0.26187037  0.13065488  0.41010312  1
  Li  Li1  1  0.26201575  0.13133910  0.91007184  1
  Li  Li2  1  0.20267806  0.40479629  0.57677102  1
  Li  Li3  1  0.20220287  0.79741984  0.57676287  1
  Li  Li4  1  0.53591246  0.46446625  0.74342865  1
  Li  Li5  1  0.86924614  0.13112801  0.41009386  1
  Li  Li6  1  0.20199824  0.40465321  0.07672858  1
  Li  Li7  1  0.20257846  0.79779458  0.07676068  1
  Li  Li8  1  0.86866299  0.73798642  0.41006922  1
  Li  Li9  1  0.86887527  0.13075378  0.91009514  1
  Li  Li10  1  0.59520029  0.79732234  0.07676686  1
  Li  Li11  1  0.59534676  0.79800425  0.57673527  1
  Li  Li12  1  0.53532889  0.07131576  0.74339937  1
  Li  Li13  1  0.53553314  0.46408710  0.24342468  1
  Li  Li14  1  0.86934468  0.73813024  0.91009951  1
  Li  Li15  1  0.53601261  0.07146080  0.24343568  1
  Li  Li16  1  0.92854042  0.46398979  0.74343190  1
  Li  Li17  1  0.92868292  0.46466880  0.24339450  1
  I  I18  1  0.78615565  0.57314845  0.16961181  1
  I  I19  1  0.78639992  0.21316087  0.66961831  1
  I  I20  1  0.76018443  0.88051516  0.33628566  1
  I  I21  1  0.12028975  0.23987468  0.33626436  1
  I  I22  1  0.09345129  0.54637371  0.50293588  1
  I  I23  1  0.42678959  0.21304534  0.16960542  1
  I  I24  1  0.12017245  0.88026816  0.83628623  1
  I  I25  1  0.76012499  0.87971214  0.83626762  1
  I  I26  1  0.78683782  0.21359714  0.16961890  1
  I  I27  1  0.78695709  0.57321279  0.66960516  1
  I  I28  1  0.11948595  0.23981556  0.83628756  1
  I  I29  1  0.11973451  0.87982915  0.33628646  1
  I  I30  1  0.45350624  0.54693105  0.50295257  1
  I  I31  1  0.45362482  -0.09345490  0.00293876  1
  I  I32  1  0.42685497  0.21384768  0.66961253  1
  I  I33  1  0.09351302  0.54717728  0.00294761  1
  I  I34  1  0.45282052  -0.09351567  0.50295209  1
  I  I35  1  0.45306666  0.54648993  0.00295725  1
