# generated using pymatgen
data_LiI
_symmetry_space_group_name_H-M   'P 1'
_cell_length_a   12.58633421
_cell_length_b   12.58632080
_cell_length_c   8.66078188
_cell_angle_alpha   90.00174459
_cell_angle_beta   89.99833714
_cell_angle_gamma   120.00469026
_symmetry_Int_Tables_number   1
_chemical_formula_structural   LiI
_chemical_formula_sum   'Li18 I18'
_cell_volume   1188.13355464
_cell_formula_units_Z   18
loop_
 _symmetry_equiv_pos_site_id
 _symmetry_equiv_pos_as_xyz
  1  'x, y, z'
loop_
 _atom_site_type_symbol
 _atom_site_label
 _atom_site_symmetry_multiplicity
 _atom_site_fract_x
 _atom_site_fract_y
 _atom_site_fract_z
 _atom_site_occupancy
  Li  Li0  1  0.07058359  0.53634534  0.49918738  1
  Li  Li1  1  0.07059181  0.53423035  -0.00081495  1
  Li  Li2  1  0.79698040  0.59604252  0.66589763  1
  Li  Li3  1  0.79906805  0.20301345  0.66589204  1
  Li  Li4  1  0.13033128  0.86764817  0.83251026  1
  Li  Li5  1  0.46365802  0.53423904  0.49918114  1
  Li  Li6  1  0.79907768  0.59604136  0.16589113  1
  Li  Li7  1  0.79698679  0.20093138  0.16589169  1
  Li  Li8  1  0.46577000  0.92940723  0.49918503  1
  Li  Li9  1  0.46576051  0.53634147  -0.00081924  1
  Li  Li10  1  0.40395739  0.20301916  0.16589762  1
  Li  Li11  1  0.40396022  0.20092100  0.66589114  1
  Li  Li12  1  0.13236276  0.26267939  0.83251348  1
  Li  Li13  1  0.13235029  0.86966791  0.33250886  1
  Li  Li14  1  0.46365324  0.92941577  -0.00081165  1
  Li  Li15  1  0.13032369  0.26268011  0.33251837  1
  Li  Li16  1  0.73732088  0.86967673  0.83251857  1
  Li  Li17  1  0.73732065  0.86763708  0.33251327  1
  I  I18  1  0.54775571  0.09411279  0.73935412  1
  I  I19  1  0.54775402  0.45365165  0.23934810  1
  I  I20  1  0.23925091  0.11892937  0.90607858  1
  I  I21  1  0.87967852  0.76076683  0.90608464  1
  I  I22  1  0.57260044  0.78704989  0.07271318  1
  I  I23  1  0.90587272  0.45363294  0.73936337  1
  I  I24  1  0.87966872  0.11892040  0.40609063  1
  I  I25  1  0.23923353  0.12032199  0.40608380  1
  I  I26  1  0.54634876  0.45224598  0.73934818  1
  I  I27  1  0.54636760  0.09412749  0.23936399  1
  I  I28  1  0.88107061  0.76074961  0.40607958  1
  I  I29  1  0.88107982  0.12033176  0.90609032  1
  I  I30  1  0.21294121  0.78556555  0.07269949  1
  I  I31  1  0.21295088  0.42740027  0.57271367  1
  I  I32  1  0.90588651  0.45224431  0.23935372  1
  I  I33  1  0.57261436  0.78556599  0.57270691  1
  I  I34  1  0.21443420  0.42738665  0.07270665  1
  I  I35  1  0.21443424  0.78705908  0.57269856  1
