# generated using pymatgen
data_LiBr
_symmetry_space_group_name_H-M   'P 1'
_cell_length_a   4.05039063
_cell_length_b   4.04944527
_cell_length_c   13.55334473
_cell_angle_alpha   89.96206067
_cell_angle_beta   89.95892591
_cell_angle_gamma   64.56224597
_symmetry_Int_Tables_number   1
_chemical_formula_structural   LiBr
_chemical_formula_sum   'Li4 Br4'
_cell_volume   200.74824705
_cell_formula_units_Z   4
loop_
 _symmetry_equiv_pos_site_id
 _symmetry_equiv_pos_as_xyz
  1  'x, y, z'
loop_
 _atom_site_type_symbol
 _atom_site_label
 _atom_site_symmetry_multiplicity
 _atom_site_fract_x
 _atom_site_fract_y
 _atom_site_fract_z
 _atom_site_occupancy
  Li  Li0  1  0.14756645  0.64829194  0.43294098  1
  Li  Li1  1  0.51138440  0.01218526  0.18242144  1
  Li  Li2  1  -0.14649981  0.35082903  0.93295970  1
  Li  Li3  1  0.48791402  -0.01139809  0.68244409  1
  Br  Br4  1  0.14007992  0.64172828  0.62061774  1
  Br  Br5  1  0.49503820  -0.00475162  0.37044021  1
  Br  Br6  1  -0.14118890  0.35915815  0.12064893  1
  Br  Br7  1  0.50570573  0.00395704  0.87039657  1
