# generated using pymatgen
data_LiBr
_symmetry_space_group_name_H-M   'P 1'
_cell_length_a   11.35613113
_cell_length_b   8.01075373
_cell_length_c   5.29860221
_cell_angle_alpha   90.00000046
_cell_angle_beta   156.37754414
_cell_angle_gamma   89.99998490
_symmetry_Int_Tables_number   1
_chemical_formula_structural   LiBr
_chemical_formula_sum   'Li4 Br4'
_cell_volume   193.14935948
_cell_formula_units_Z   4
loop_
 _symmetry_equiv_pos_site_id
 _symmetry_equiv_pos_as_xyz
  1  'x, y, z'
loop_
 _atom_site_type_symbol
 _atom_site_label
 _atom_site_symmetry_multiplicity
 _atom_site_fract_x
 _atom_site_fract_y
 _atom_site_fract_z
 _atom_site_occupancy
  Li  Li0  1  0.17418427  0.16567430  0.11981799  1
  Li  Li1  1  0.67418656  0.66567727  0.11981429  1
  Li  Li2  1  0.17418646  0.83432246  0.61981362  1
  Li  Li3  1  0.67418433  0.33432599  0.61981795  1
  Br  Br4  1  0.67381518  0.66510836  0.61819959  1
  Br  Br5  1  0.17380659  0.16510727  0.61818678  1
  Br  Br6  1  0.67380621  0.33489291  0.11818595  1
  Br  Br7  1  0.17381488  0.83489144  0.11819878  1
