# generated using pymatgen
data_LiBr
_symmetry_space_group_name_H-M   'P 1'
_cell_length_a   13.26386639
_cell_length_b   15.23188704
_cell_length_c   4.03402868
_cell_angle_alpha   89.99990480
_cell_angle_beta   90.00174454
_cell_angle_gamma   89.99984713
_symmetry_Int_Tables_number   1
_chemical_formula_structural   LiBr
_chemical_formula_sum   'Li16 Br16'
_cell_volume   815.00979851
_cell_formula_units_Z   16
loop_
 _symmetry_equiv_pos_site_id
 _symmetry_equiv_pos_as_xyz
  1  'x, y, z'
loop_
 _atom_site_type_symbol
 _atom_site_label
 _atom_site_symmetry_multiplicity
 _atom_site_fract_x
 _atom_site_fract_y
 _atom_site_fract_z
 _atom_site_occupancy
  Li  Li0  1  0.91703489  0.20189764  -0.01109553  1
  Li  Li1  1  0.08296745  0.79810312  -0.01107557  1
  Li  Li2  1  0.33297496  0.45188866  0.23897498  1
  Li  Li3  1  0.58296668  0.79810513  0.48892334  1
  Li  Li4  1  0.83297687  0.45188810  0.73897465  1
  Li  Li5  1  0.16702370  0.04810900  0.23896146  1
  Li  Li6  1  0.41703242  0.20189816  0.48890437  1
  Li  Li7  1  0.83297724  0.95188849  0.23897240  1
  Li  Li8  1  0.16702399  0.54810926  0.73895953  1
  Li  Li9  1  0.41703457  0.70189736  -0.01109340  1
  Li  Li10  1  0.58296688  0.29810427  -0.01107454  1
  Li  Li11  1  0.33297522  0.95188865  0.73897751  1
  Li  Li12  1  0.66702441  0.04811019  0.73895663  1
  Li  Li13  1  0.66702498  0.54810987  0.23896006  1
  Li  Li14  1  0.91703249  0.70189765  0.48890547  1
  Li  Li15  1  0.08296651  0.29810331  0.48892248  1
  Br  Br16  1  0.64065176  0.44617365  0.75252205  1
  Br  Br17  1  0.35934792  0.55382538  0.75254162  1
  Br  Br18  1  0.60934880  0.69617503  0.00247665  1
  Br  Br19  1  0.85934908  0.55382490  0.25254006  1
  Br  Br20  1  0.10934741  0.69617399  0.50247600  1
  Br  Br21  1  0.89065175  0.80382681  0.00245192  1
  Br  Br22  1  0.14065039  0.44617322  0.25252218  1
  Br  Br23  1  0.10934842  0.19617414  0.00247599  1
  Br  Br24  1  0.89065199  0.30382665  0.50245235  1
  Br  Br25  1  0.14065066  -0.05382696  0.75252338  1
  Br  Br26  1  0.85934918  0.05382544  0.75253787  1
  Br  Br27  1  0.60934720  0.19617495  0.50247745  1
  Br  Br28  1  0.39065166  0.80382706  0.50245458  1
  Br  Br29  1  0.39065114  0.30382735  0.00245125  1
  Br  Br30  1  0.64065177  -0.05382586  0.25251733  1
  Br  Br31  1  0.35934760  0.05382538  0.25254403  1
