# generated using pymatgen
data_NaI
_symmetry_space_group_name_H-M   'P 1'
_cell_length_a   4.55661903
_cell_length_b   7.86203795
_cell_length_c   11.95688284
_cell_angle_alpha   89.99866068
_cell_angle_beta   139.61727849
_cell_angle_gamma   90.00131222
_symmetry_Int_Tables_number   1
_chemical_formula_structural   NaI
_chemical_formula_sum   'Na4 I4'
_cell_volume   277.52189419
_cell_formula_units_Z   4
loop_
 _symmetry_equiv_pos_site_id
 _symmetry_equiv_pos_as_xyz
  1  'x, y, z'
loop_
 _atom_site_type_symbol
 _atom_site_label
 _atom_site_symmetry_multiplicity
 _atom_site_fract_x
 _atom_site_fract_y
 _atom_site_fract_z
 _atom_site_occupancy
  Na  Na0  1  0.25336276  0.25005315  0.50034914  1
  Na  Na1  1  0.74663167  0.75005229  -0.00034714  1
  Na  Na2  1  0.74663660  0.74994655  0.49965101  1
  Na  Na3  1  0.25336776  0.24994781  0.00034714  1
  I  I4  1  0.25232721  0.08306025  0.75030982  1
  I  I5  1  0.74766667  0.58306112  0.74968845  1
  I  I6  1  0.74767351  0.91693985  0.24969018  1
  I  I7  1  0.25233382  0.41693897  0.25031141  1
