# generated using pymatgen
data_LiI
_symmetry_space_group_name_H-M   'P 1'
_cell_length_a   12.50132718
_cell_length_b   12.50114522
_cell_length_c   9.04296377
_cell_angle_alpha   89.96610322
_cell_angle_beta   90.03407697
_cell_angle_gamma   119.97966420
_symmetry_Int_Tables_number   1
_chemical_formula_structural   LiI
_chemical_formula_sum   'Li18 I18'
_cell_volume   1224.15440606
_cell_formula_units_Z   18
loop_
 _symmetry_equiv_pos_site_id
 _symmetry_equiv_pos_as_xyz
  1  'x, y, z'
loop_
 _atom_site_type_symbol
 _atom_site_label
 _atom_site_symmetry_multiplicity
 _atom_site_fract_x
 _atom_site_fract_y
 _atom_site_fract_z
 _atom_site_occupancy
  Li  Li0  1  0.33350102  0.06166871  0.82125190  1
  Li  Li1  1  0.33325888  0.27179162  0.32138768  1
  Li  Li2  1  0.27172217  0.33324043  -0.01233911  1
  Li  Li3  1  0.06167958  0.72827672  -0.01236380  1
  Li  Li4  1  0.60492325  0.60502439  0.15447261  1
  Li  Li5  1  -0.06161631  0.27174937  0.82124314  1
  Li  Li6  1  0.06162332  0.33349315  0.48779751  1
  Li  Li7  1  0.27172049  0.93831911  0.48763303  1
  Li  Li8  1  0.72820756  0.66674434  0.82139163  1
  Li  Li9  1  0.72825292  0.06161424  0.32124466  1
  Li  Li10  1  0.66675466  0.72827221  0.48765521  1
  Li  Li11  1  0.66651496  0.93837654  -0.01221235  1
  Li  Li12  1  0.39495929  0.00000797  0.15464234  1
  Li  Li13  1  0.39497059  0.39507670  0.65447043  1
  Li  Li14  1  -0.06167369  0.66649776  0.32125088  1
  Li  Li15  1  0.60491162  -0.00019213  0.65454027  1
  Li  Li16  1  0.00019397  0.39509302  0.15453933  1
  Li  Li17  1  0.99998514  0.60503710  0.65464405  1
  I  I18  1  0.19492760  0.42235483  0.75050199  1
  I  I19  1  0.19474563  0.77253530  0.25060706  1
  I  I20  1  0.91118341  0.47163202  0.91684655  1
  I  I21  1  0.56057655  0.08882659  0.91691541  1
  I  I22  1  0.24432737  0.10612288  0.08343269  1
  I  I23  1  0.57775326  0.77253845  0.75045699  1
  I  I24  1  0.56053439  0.47179511  0.41698331  1
  I  I25  1  0.91117362  0.43942819  0.41692107  1
  I  I26  1  0.22746484  0.80525325  0.75060093  1
  I  I27  1  0.22746200  0.42224405  0.25045272  1
  I  I28  1  0.52836697  0.08881656  0.41683968  1
  I  I29  1  0.52820722  0.43946982  0.91698197  1
  I  I30  1  0.89389947  0.13825256  0.08352439  1
  I  I31  1  0.89387930  0.75567280  0.58342508  1
  I  I32  1  0.57764606  0.80507379  0.25050500  1
  I  I33  1  0.24430110  0.13808859  0.58345585  1
  I  I34  1  0.86191106  0.75570043  0.08345291  1
  I  I35  1  0.86175069  0.10610353  0.58353232  1
