# generated using pymatgen
data_LiBr
_symmetry_space_group_name_H-M   'P 1'
_cell_length_a   9.63868248
_cell_length_b   9.63874023
_cell_length_c   5.10845310
_cell_angle_alpha   90.00070776
_cell_angle_beta   90.00095666
_cell_angle_gamma   120.02698467
_symmetry_Int_Tables_number   1
_chemical_formula_structural   LiBr
_chemical_formula_sum   'Li6 Br6'
_cell_volume   410.90349554
_cell_formula_units_Z   6
loop_
 _symmetry_equiv_pos_site_id
 _symmetry_equiv_pos_as_xyz
  1  'x, y, z'
loop_
 _atom_site_type_symbol
 _atom_site_label
 _atom_site_symmetry_multiplicity
 _atom_site_fract_x
 _atom_site_fract_y
 _atom_site_fract_z
 _atom_site_occupancy
  Li  Li0  1  0.13980331  0.27931910  -0.03956917  1
  Li  Li1  1  0.72070532  0.86041807  -0.03955330  1
  Li  Li2  1  0.86029404  0.13949640  0.46041971  1
  Li  Li3  1  0.86041822  0.72070627  0.46044704  1
  Li  Li4  1  0.27931952  0.13980414  0.46043157  1
  Li  Li5  1  0.13949642  0.86029386  -0.03958046  1
  Br  Br6  1  0.66884781  0.83427005  0.46127819  1
  Br  Br7  1  0.16563587  0.83449146  0.46125750  1
  Br  Br8  1  0.33113157  0.16558699  0.96124851  1
  Br  Br9  1  0.83448954  0.16563436  0.96125623  1
  Br  Br10  1  0.83427132  0.66884971  0.96127827  1
  Br  Br11  1  0.16558705  0.33112959  0.46124878  1
