# generated using pymatgen
data_LiBr
_symmetry_space_group_name_H-M   'P 1'
_cell_length_a   11.53585232
_cell_length_b   11.53585719
_cell_length_c   7.93339711
_cell_angle_alpha   90.00033386
_cell_angle_beta   89.99956367
_cell_angle_gamma   120.00270061
_symmetry_Int_Tables_number   1
_chemical_formula_structural   LiBr
_chemical_formula_sum   'Li18 Br18'
_cell_volume   914.27651635
_cell_formula_units_Z   18
loop_
 _symmetry_equiv_pos_site_id
 _symmetry_equiv_pos_as_xyz
  1  'x, y, z'
loop_
 _atom_site_type_symbol
 _atom_site_label
 _atom_site_symmetry_multiplicity
 _atom_site_fract_x
 _atom_site_fract_y
 _atom_site_fract_z
 _atom_site_occupancy
  Li  Li0  1  0.79682683  0.20264139  0.93111348  1
  Li  Li1  1  0.79683335  0.59419217  0.43112166  1
  Li  Li2  1  0.13069262  0.86984108  0.09778087  1
  Li  Li3  1  0.73916081  0.86931469  0.09777638  1
  Li  Li4  1  0.46401871  0.92750716  0.26444490  1
  Li  Li5  1  0.79735264  0.59417505  0.93110944  1
  Li  Li6  1  0.73913596  0.86983197  0.59778389  1
  Li  Li7  1  0.13068392  0.26083981  0.59777722  1
  Li  Li8  1  0.40580868  0.20316809  0.93111975  1
  Li  Li9  1  0.40582223  0.20264712  0.43110895  1
  Li  Li10  1  0.13015822  0.86930873  0.59778142  1
  Li  Li11  1  0.13016579  0.26085964  0.09778799  1
  Li  Li12  1  0.07247097  0.53649971  0.26445022  1
  Li  Li13  1  0.07249663  0.53598308  0.76444290  1
  Li  Li14  1  0.79735929  0.20317490  0.43111430  1
  Li  Li15  1  0.46402502  0.53650887  0.76444881  1
  Li  Li16  1  0.46349188  0.53597223  0.26444731  1
  Li  Li17  1  0.46350036  0.92753015  0.76445158  1
  Br  Br18  1  0.21288256  0.78673775  0.83735091  1
  Br  Br19  1  0.21288437  0.42615385  0.33736592  1
  Br  Br20  1  0.54659885  0.45378701  0.00401736  1
  Br  Br21  1  0.90719362  0.45340344  0.00401685  1
  Br  Br22  1  0.87993112  0.75947296  0.17068631  1
  Br  Br23  1  0.21326448  0.42613934  0.83735453  1
  Br  Br24  1  0.90718066  0.45378236  0.50403396  1
  Br  Br25  1  0.54659693  0.09280948  0.50401894  1
  Br  Br26  1  0.57384505  0.78711629  0.83736728  1
  Br  Br27  1  0.57385818  0.78673427  0.33735191  1
  Br  Br28  1  0.54621284  0.45340130  0.50401854  1
  Br  Br29  1  0.54621889  0.09282145  0.00403327  1
  Br  Br30  1  0.24051241  0.12044842  0.17069895  1
  Br  Br31  1  0.24052592  0.12006991  0.67068923  1
  Br  Br32  1  0.21326367  0.78711907  0.33735129  1
  Br  Br33  1  0.87992915  0.12045056  0.67068354  1
  Br  Br34  1  0.87954741  0.12006885  0.17068486  1
  Br  Br35  1  0.87954997  0.75948783  0.67069832  1
