# generated using pymatgen
data_LiBr
_symmetry_space_group_name_H-M   'P 1'
_cell_length_a   11.50779793
_cell_length_b   11.50780322
_cell_length_c   7.93026722
_cell_angle_alpha   90.00072034
_cell_angle_beta   89.99943334
_cell_angle_gamma   120.00494375
_symmetry_Int_Tables_number   1
_chemical_formula_structural   LiBr
_chemical_formula_sum   'Li18 Br18'
_cell_volume   909.45553478
_cell_formula_units_Z   18
loop_
 _symmetry_equiv_pos_site_id
 _symmetry_equiv_pos_as_xyz
  1  'x, y, z'
loop_
 _atom_site_type_symbol
 _atom_site_label
 _atom_site_symmetry_multiplicity
 _atom_site_fract_x
 _atom_site_fract_y
 _atom_site_fract_z
 _atom_site_occupancy
  Li  Li0  1  0.12894681  0.26041321  0.45162199  1
  Li  Li1  1  0.12896590  0.86854143  0.95160846  1
  Li  Li2  1  0.07292123  0.53771879  0.61828857  1
  Li  Li3  1  0.46478519  0.92706804  0.61829692  1
  Li  Li4  1  0.40626482  0.20188071  0.78496398  1
  Li  Li5  1  0.73959889  0.86854866  0.45162810  1
  Li  Li6  1  0.46479283  0.53770536  0.11827330  1
  Li  Li7  1  0.07293156  0.53521425  0.11828860  1
  Li  Li8  1  0.13145776  0.87103898  0.45160806  1
  Li  Li9  1  0.13145253  0.26040100  0.95162159  1
  Li  Li10  1  0.46228147  0.92708079  0.11829686  1
  Li  Li11  1  0.46229739  0.53520916  0.61827373  1
  Li  Li12  1  0.79812375  0.20436883  0.78494138  1
  Li  Li13  1  0.79811863  0.59373526  0.28495781  1
  Li  Li14  1  0.73958661  0.87104993  0.95162739  1
  Li  Li15  1  0.40625091  0.20438539  0.28496422  1
  Li  Li16  1  0.79561656  0.59374596  0.78495851  1
  Li  Li17  1  0.79562524  0.20187443  0.28493900  1
  Br  Br18  1  0.88085626  0.12160477  0.02470539  1
  Br  Br19  1  0.88086198  0.75925768  0.52471391  1
  Br  Br20  1  0.21172864  0.78580977  0.19137435  1
  Br  Br21  1  0.57407512  0.78827027  0.19138252  1
  Br  Br22  1  0.54506210  0.09259281  0.35805325  1
  Br  Br23  1  0.87839875  0.75925794  0.02471346  1
  Br  Br24  1  0.57407583  0.78580476  0.69138200  1
  Br  Br25  1  0.21173203  0.42592632  0.69137773  1
  Br  Br26  1  0.24074164  0.11913673  0.02471808  1
  Br  Br27  1  0.24073864  0.12160304  0.52471897  1
  Br  Br28  1  0.21418923  0.78827291  0.69137257  1
  Br  Br29  1  0.21419690  0.42592368  0.19137631  1
  Br  Br30  1  0.90740939  0.45247139  0.35804178  1
  Br  Br31  1  0.90740881  0.45493478  0.85804257  1
  Br  Br32  1  0.87839310  0.11914507  0.52470478  1
  Br  Br33  1  0.54506189  0.45247737  0.85803954  1
  Br  Br34  1  0.54752304  0.45493945  0.35803915  1
  Br  Br35  1  0.54752861  0.09259108  0.85805173  1
