# generated using pymatgen
data_LiBr
_symmetry_space_group_name_H-M   'P 1'
_cell_length_a   11.40469787
_cell_length_b   11.40468819
_cell_length_c   7.98375080
_cell_angle_alpha   89.99464838
_cell_angle_beta   90.00531049
_cell_angle_gamma   119.99034002
_symmetry_Int_Tables_number   1
_chemical_formula_structural   LiBr
_chemical_formula_sum   'Li18 Br18'
_cell_volume   899.38795759
_cell_formula_units_Z   18
loop_
 _symmetry_equiv_pos_site_id
 _symmetry_equiv_pos_as_xyz
  1  'x, y, z'
loop_
 _atom_site_type_symbol
 _atom_site_label
 _atom_site_symmetry_multiplicity
 _atom_site_fract_x
 _atom_site_fract_y
 _atom_site_fract_z
 _atom_site_occupancy
  Li  Li0  1  0.79987886  0.59479641  0.40941958  1
  Li  Li1  1  0.79985804  0.20502222  0.90947323  1
  Li  Li2  1  0.73853679  0.86678782  0.57608815  1
  Li  Li3  1  0.12833881  0.26149454  0.57614662  1
  Li  Li4  1  0.07184123  0.53832860  0.74281365  1
  Li  Li5  1  0.40517201  0.20499375  0.40948270  1
  Li  Li6  1  0.12831454  0.86680855  0.07614151  1
  Li  Li7  1  0.73850722  0.87166105  0.07614961  1
  Li  Li8  1  0.79498168  0.20014237  0.40947460  1
  Li  Li9  1  0.79500540  0.59482644  0.90947950  1
  Li  Li10  1  0.13321162  0.26146181  0.07608613  1
  Li  Li11  1  0.13319056  0.87168489  0.57614045  1
  Li  Li12  1  0.46164834  0.53347642  0.74280685  1
  Li  Li13  1  0.46167272  -0.07183941  0.24281374  1
  Li  Li14  1  0.40520330  0.20012191  0.90942125  1
  Li  Li15  1  0.07186996  0.53345438  0.24275275  1
  Li  Li16  1  0.46654530  -0.07186972  0.74275296  1
  Li  Li17  1  0.46652406  0.53835167  0.24280913  1
  Br  Br18  1  0.90740219  0.45185800  0.48392428  1
  Br  Br19  1  0.90743264  0.45560477  0.98394922  1
  Br  Br20  1  0.88147432  0.75926393  0.65059108  1
  Br  Br21  1  0.87771312  0.11851740  0.65052838  1
  Br  Br22  1  0.21481596  0.78895327  0.81719401  1
  Br  Br23  1  0.54814860  0.45562010  0.48386117  1
  Br  Br24  1  0.87773018  0.75923367  0.15061689  1
  Br  Br25  1  0.88148086  0.12228854  0.15052698  1
  Br  Br26  1  0.54439689  0.09256780  0.48395039  1
  Br  Br27  1  0.54437985  0.45185135  0.98386077  1
  Br  Br28  1  0.24073504  0.11852456  0.15059374  1
  Br  Br29  1  0.24076411  0.12226913  0.65061756  1
  Br  Br30  1  0.21106403  0.42590276  0.81728227  1
  Br  Br31  1  0.21104552  0.78518381  0.31719406  1
  Br  Br32  1  0.54814094  0.09259825  0.98392630  1
  Br  Br33  1  0.21480748  0.42593041  0.31725706  1
  Br  Br34  1  0.57406885  0.78519221  0.81726031  1
  Br  Br35  1  0.57409901  0.78893630  0.31728486  1
