# generated using pymatgen
data_LiBr
_symmetry_space_group_name_H-M   'P 1'
_cell_length_a   7.42027955
_cell_length_b   7.42025802
_cell_length_c   7.10460717
_cell_angle_alpha   89.99894232
_cell_angle_beta   90.02507134
_cell_angle_gamma   90.00003870
_symmetry_Int_Tables_number   1
_chemical_formula_structural   LiBr
_chemical_formula_sum   'Li8 Br8'
_cell_volume   391.18239590
_cell_formula_units_Z   8
loop_
 _symmetry_equiv_pos_site_id
 _symmetry_equiv_pos_as_xyz
  1  'x, y, z'
loop_
 _atom_site_type_symbol
 _atom_site_label
 _atom_site_symmetry_multiplicity
 _atom_site_fract_x
 _atom_site_fract_y
 _atom_site_fract_z
 _atom_site_occupancy
  Li  Li0  1  0.64940645  0.14984875  0.05650925  1
  Li  Li1  1  0.64985341  0.14940671  0.55651280  1
  Li  Li2  1  0.35058048  0.85015680  0.05655115  1
  Li  Li3  1  0.14985192  0.35059974  0.05650670  1
  Li  Li4  1  0.85014141  0.64940357  0.05655221  1
  Li  Li5  1  0.85059506  0.64985272  0.55653762  1
  Li  Li6  1  0.35015441  0.85058659  0.55654966  1
  Li  Li7  1  0.14940286  0.35014552  0.55651850  1
  Br  Br8  1  0.33310864  0.16725891  0.80551776  1
  Br  Br9  1  0.66725874  0.83310378  0.30541346  1
  Br  Br10  1  0.66691748  0.83272506  0.80541540  1
  Br  Br11  1  0.16728756  0.66688702  0.80544058  1
  Br  Br12  1  0.83273894  0.33309653  0.80552515  1
  Br  Br13  1  0.16688594  0.66728235  0.30544018  1
  Br  Br14  1  0.33272250  0.16691145  0.30551889  1
  Br  Br15  1  0.83309421  0.33273449  0.30552582  1
