# generated using pymatgen
data_NaI
_symmetry_space_group_name_H-M   'P 1'
_cell_length_a   13.66518786
_cell_length_b   13.66518737
_cell_length_c   8.61681820
_cell_angle_alpha   90.00644955
_cell_angle_beta   89.99359970
_cell_angle_gamma   120.02477644
_symmetry_Int_Tables_number   1
_chemical_formula_structural   NaI
_chemical_formula_sum   'Na18 I18'
_cell_volume   1393.15768136
_cell_formula_units_Z   18
loop_
 _symmetry_equiv_pos_site_id
 _symmetry_equiv_pos_as_xyz
  1  'x, y, z'
loop_
 _atom_site_type_symbol
 _atom_site_label
 _atom_site_symmetry_multiplicity
 _atom_site_fract_x
 _atom_site_fract_y
 _atom_site_fract_z
 _atom_site_occupancy
  Na  Na0  1  0.53344730  0.76630907  0.10107238  1
  Na  Na1  1  0.53343680  0.76719770  0.60109621  1
  Na  Na2  1  0.56702419  0.13321925  0.26773813  1
  Na  Na3  1  0.56617535  0.43293989  0.26778739  1
  Na  Na4  1  0.90039357  0.10049133  0.43445407  1
  Na  Na5  1  0.23372689  0.76715803  0.10112069  1
  Na  Na6  1  0.56613565  0.13322976  0.76776190  1
  Na  Na7  1  0.56706024  0.43382468  0.76778740  1
  Na  Na8  1  0.23280228  0.46656309  0.10109527  1
  Na  Na9  1  0.23284200  0.76627325  0.60112071  1
  Na  Na10  1  0.86678061  0.43297571  0.76773907  1
  Na  Na11  1  0.86677012  0.43386430  0.26776289  1
  Na  Na12  1  0.89946892  0.79989637  0.43442860  1
  Na  Na13  1  0.89950869  0.09960659  0.93445408  1
  Na  Na14  1  0.23369089  0.46655259  0.60107145  1
  Na  Na15  1  0.90035753  0.79988588  0.93440484  1
  Na  Na16  1  0.20011395  0.09964237  0.43440576  1
  Na  Na17  1  0.20010347  0.10053106  0.93442958  1
  I  I18  1  0.12164183  0.56008903  0.85239092  1
  I  I19  1  0.12161228  0.56150071  0.35241065  1
  I  I20  1  0.77324445  0.54502489  0.01905785  1
  I  I21  1  0.77181713  0.22676113  0.01903549  1
  I  I22  1  0.10657227  0.89484958  0.18570219  1
  I  I23  1  0.43990561  0.56151627  0.85236877  1
  I  I24  1  0.77183260  0.54505437  0.51907752  1
  I  I25  1  0.77323894  0.22818289  0.51903548  1
  I  I26  1  0.43849926  0.87838770  0.85241089  1
  I  I27  1  0.43848380  0.56009448  0.35236882  1
  I  I28  1  0.45497511  0.22675565  0.51905760  1
  I  I29  1  0.45494561  0.22816738  0.01907729  1
  I  I30  1  0.10516595  0.21172105  0.18574427  1
  I  I31  1  0.10515047  0.89342783  0.68570226  1
  I  I32  1  0.43991108  0.87835821  0.35239117  1
  I  I33  1  0.10657778  0.21169155  0.68572455  1
  I  I34  1  0.78830846  0.89342235  0.18572434  1
  I  I35  1  0.78827894  0.89483401  0.68574406  1
