# generated using pymatgen
data_LiBr
_symmetry_space_group_name_H-M   'P 1'
_cell_length_a   11.93130423
_cell_length_b   11.93132695
_cell_length_c   7.29076845
_cell_angle_alpha   90.00030374
_cell_angle_beta   89.99971716
_cell_angle_gamma   120.00061071
_symmetry_Int_Tables_number   1
_chemical_formula_structural   LiBr
_chemical_formula_sum   'Li18 Br18'
_cell_volume   898.83076954
_cell_formula_units_Z   18
loop_
 _symmetry_equiv_pos_site_id
 _symmetry_equiv_pos_as_xyz
  1  'x, y, z'
loop_
 _atom_site_type_symbol
 _atom_site_label
 _atom_site_symmetry_multiplicity
 _atom_site_fract_x
 _atom_site_fract_y
 _atom_site_fract_z
 _atom_site_occupancy
  Li  Li0  1  0.16683608  -0.04204461  0.87306655  1
  Li  Li1  1  0.16684980  0.20889129  0.37306571  1
  Li  Li2  1  0.37548240  0.49997505  0.04015139  1
  Li  Li3  1  0.12449648  0.62451782  0.04015210  1
  Li  Li4  1  0.70871700  0.54216796  0.20640816  1
  Li  Li5  1  0.04203965  0.20888325  0.87306857  1
  Li  Li6  1  0.12448111  0.49996633  0.54014110  1
  Li  Li7  1  0.37548004  0.87550359  0.54015179  1
  Li  Li8  1  0.79110990  0.83315169  0.87306777  1
  Li  Li9  1  0.79111702  -0.04204235  0.37307083  1
  Li  Li10  1  0.50002464  0.62452002  0.54014853  1
  Li  Li11  1  0.50003543  0.87552020  0.04013654  1
  Li  Li12  1  0.45781864  0.16653702  0.20640660  1
  Li  Li13  1  0.45783138  0.29128159  0.70640949  1
  Li  Li14  1  0.04204577  0.83316268  0.37306850  1
  Li  Li15  1  0.70871865  0.16654926  0.70641643  1
  Li  Li16  1  0.83345327  0.29128152  0.20641717  1
  Li  Li17  1  0.83345959  0.54217994  0.70640731  1
  Br  Br18  1  -0.04176953  0.79185229  0.70646796  1
  Br  Br19  1  -0.04176878  0.16637581  0.20648318  1
  Br  Br20  1  0.54149446  0.70858846  0.87351847  1
  Br  Br21  1  0.16709977  0.45851111  0.87351184  1
  Br  Br22  1  0.87482401  0.49964126  0.03981492  1
  Br  Br23  1  0.20814357  0.16637716  0.70646632  1
  Br  Br24  1  0.16709839  0.70859020  0.37353211  1
  Br  Br25  1  0.54148859  0.83290244  0.37351108  1
  Br  Br26  1  0.83362272  0.04176886  0.70648334  1
  Br  Br27  1  0.83362387  0.79185599  0.20646730  1
  Br  Br28  1  0.29141197  0.45850625  0.37351857  1
  Br  Br29  1  0.29140951  0.83290155  0.87353245  1
  Br  Br30  1  0.50035898  0.37518374  0.03982706  1
  Br  Br31  1  0.50035814  0.12517501  0.53981490  1
  Br  Br32  1  0.20814734  0.04176897  0.20646825  1
  Br  Br33  1  0.87482650  0.37518299  0.53982056  1
  Br  Br34  1  0.62481906  0.12517545  0.03981971  1
  Br  Br35  1  0.62481457  0.49964021  0.53982762  1
