# generated using pymatgen
data_LiBr
_symmetry_space_group_name_H-M   'P 1'
_cell_length_a   7.34506053
_cell_length_b   4.23354253
_cell_length_c   6.51053000
_cell_angle_alpha   89.99997473
_cell_angle_beta   90.00001407
_cell_angle_gamma   89.99973258
_symmetry_Int_Tables_number   1
_chemical_formula_structural   LiBr
_chemical_formula_sum   'Li4 Br4'
_cell_volume   202.44900682
_cell_formula_units_Z   4
loop_
 _symmetry_equiv_pos_site_id
 _symmetry_equiv_pos_as_xyz
  1  'x, y, z'
loop_
 _atom_site_type_symbol
 _atom_site_label
 _atom_site_symmetry_multiplicity
 _atom_site_fract_x
 _atom_site_fract_y
 _atom_site_fract_z
 _atom_site_occupancy
  Li  Li0  1  0.16652450  0.49801790  0.72108303  1
  Li  Li1  1  0.66652421  0.00198486  0.72107994  1
  Li  Li2  1  0.83347590  0.50198233  0.22108233  1
  Li  Li3  1  0.33347531  -0.00198493  0.22108248  1
  Br  Br4  1  0.83331477  0.50224534  0.83149181  1
  Br  Br5  1  0.33331395  0.99775092  0.83149228  1
  Br  Br6  1  0.16668538  0.49775451  0.33149242  1
  Br  Br7  1  0.66668598  0.00224907  0.33149116  1
