# generated using pymatgen
data_LiBr
_symmetry_space_group_name_H-M   'P 1'
_cell_length_a   14.64338608
_cell_length_b   14.61892337
_cell_length_c   3.96300474
_cell_angle_alpha   90.00298587
_cell_angle_beta   90.00464786
_cell_angle_gamma   89.92345008
_symmetry_Int_Tables_number   1
_chemical_formula_structural   LiBr
_chemical_formula_sum   'Li16 Br16'
_cell_volume   848.36180004
_cell_formula_units_Z   16
loop_
 _symmetry_equiv_pos_site_id
 _symmetry_equiv_pos_as_xyz
  1  'x, y, z'
loop_
 _atom_site_type_symbol
 _atom_site_label
 _atom_site_symmetry_multiplicity
 _atom_site_fract_x
 _atom_site_fract_y
 _atom_site_fract_z
 _atom_site_occupancy
  Li  Li0  1  0.41218333  0.83058988  0.78179594  1
  Li  Li1  1  0.20694068  0.42621430  -0.09421888  1
  Li  Li2  1  0.57597196  0.70718580  0.15143665  1
  Li  Li3  1  0.58798746  0.17009035  0.78136006  1
  Li  Li4  1  0.79311490  0.57343914  -0.09228950  1
  Li  Li5  1  0.16793113  0.91193733  0.02868875  1
  Li  Li6  1  0.83221992  0.08778870  0.02866975  1
  Li  Li7  1  0.66781167  0.41221413  0.52878419  1
  Li  Li8  1  0.33208166  0.58814394  0.52864538  1
  Li  Li9  1  0.08780241  0.66943194  0.28181918  1
  Li  Li10  1  0.29303351  0.07374680  0.40605347  1
  Li  Li11  1  0.91200978  0.32987722  0.28143576  1
  Li  Li12  1  0.70683425  0.92647460  0.40712525  1
  Li  Li13  1  0.07608000  0.20718344  0.65179752  1
  Li  Li14  1  0.92406093  0.79279650  0.65134492  1
  Li  Li15  1  0.42393310  0.29279343  0.15164092  1
  Br  Br16  1  0.58291086  0.82152231  0.64236001  1
  Br  Br17  1  0.41118728  0.66239444  0.02682951  1
  Br  Br18  1  0.33569149  0.90807211  0.28050158  1
  Br  Br19  1  0.41712654  0.17862656  0.64273646  1
  Br  Br20  1  0.58859295  0.33794863  0.02682160  1
  Br  Br21  1  0.17937395  0.08279380  0.89706328  1
  Br  Br22  1  0.82047814  0.91699222  0.89813848  1
  Br  Br23  1  0.67951821  0.58302663  0.39850763  1
  Br  Br24  1  0.32061205  0.41722001  0.39692216  1
  Br  Br25  1  0.91716213  0.67855974  0.14226760  1
  Br  Br26  1  0.08877025  0.83761770  0.52687081  1
  Br  Br27  1  0.08291826  0.32144215  0.14279125  1
  Br  Br28  1  0.91137438  0.16199391  0.52665649  1
  Br  Br29  1  0.83571786  0.40777907  0.78043572  1
  Br  Br30  1  0.16431921  0.59195133  0.78053902  1
  Br  Br31  1  0.66424979  0.09215188  0.28030470  1
