# generated using pymatgen
data_LiBr
_symmetry_space_group_name_H-M   'P 1'
_cell_length_a   6.92427105
_cell_length_b   4.29551708
_cell_length_c   6.79111977
_cell_angle_alpha   89.99977989
_cell_angle_beta   90.00090739
_cell_angle_gamma   89.99984975
_symmetry_Int_Tables_number   1
_chemical_formula_structural   LiBr
_chemical_formula_sum   'Li4 Br4'
_cell_volume   201.99047960
_cell_formula_units_Z   4
loop_
 _symmetry_equiv_pos_site_id
 _symmetry_equiv_pos_as_xyz
  1  'x, y, z'
loop_
 _atom_site_type_symbol
 _atom_site_label
 _atom_site_symmetry_multiplicity
 _atom_site_fract_x
 _atom_site_fract_y
 _atom_site_fract_z
 _atom_site_occupancy
  Li  Li0  1  0.08082616  0.75123336  0.45071629  1
  Li  Li1  1  0.58082812  0.24876681  0.45071513  1
  Li  Li2  1  -0.08083005  0.24876468  0.95071636  1
  Li  Li3  1  0.41917337  0.75123745  0.95071406  1
  Br  Br4  1  0.92513368  0.25117918  0.57470563  1
  Br  Br5  1  0.42513546  0.74881764  0.57470481  1
  Br  Br6  1  0.07486574  0.74881575  0.07471080  1
  Br  Br7  1  0.57486753  0.25118513  0.07471235  1
