# generated using pymatgen
data_NaI
_symmetry_space_group_name_H-M   'P 1'
_cell_length_a   9.01689091
_cell_length_b   5.15836849
_cell_length_c   7.85779324
_cell_angle_alpha   90.00008561
_cell_angle_beta   89.99988986
_cell_angle_gamma   89.99988531
_symmetry_Int_Tables_number   1
_chemical_formula_structural   NaI
_chemical_formula_sum   'Na4 I4'
_cell_volume   365.48518314
_cell_formula_units_Z   4
loop_
 _symmetry_equiv_pos_site_id
 _symmetry_equiv_pos_as_xyz
  1  'x, y, z'
loop_
 _atom_site_type_symbol
 _atom_site_label
 _atom_site_symmetry_multiplicity
 _atom_site_fract_x
 _atom_site_fract_y
 _atom_site_fract_z
 _atom_site_occupancy
  Na  Na0  1  0.07919216  0.75249736  0.60730204  1
  Na  Na1  1  0.57919221  0.24750015  0.60730355  1
  Na  Na2  1  0.92080803  0.24750228  0.10730302  1
  Na  Na3  1  0.42080813  0.75249941  0.10730146  1
  I  I4  1  0.91157251  0.25275474  0.71065213  1
  I  I5  1  0.41157221  0.74724510  0.71065244  1
  I  I6  1  0.08842759  0.74724537  0.21065299  1
  I  I7  1  0.58842717  0.25275560  0.21065252  1
