# generated using pymatgen
data_LiBr
_symmetry_space_group_name_H-M   'P 1'
_cell_length_a   3.93189988
_cell_length_b   3.93192327
_cell_length_c   10.72912198
_cell_angle_alpha   89.99920789
_cell_angle_beta   89.99954787
_cell_angle_gamma   90.00300981
_symmetry_Int_Tables_number   1
_chemical_formula_structural   LiBr
_chemical_formula_sum   'Li4 Br4'
_cell_volume   165.87146015
_cell_formula_units_Z   4
loop_
 _symmetry_equiv_pos_site_id
 _symmetry_equiv_pos_as_xyz
  1  'x, y, z'
loop_
 _atom_site_type_symbol
 _atom_site_label
 _atom_site_symmetry_multiplicity
 _atom_site_fract_x
 _atom_site_fract_y
 _atom_site_fract_z
 _atom_site_occupancy
  Li  Li0  1  0.50396996  -0.00055310  0.08212193  1
  Li  Li1  1  -0.00059541  0.49604586  0.33212153  1
  Li  Li2  1  0.49604168  0.00053339  0.58212868  1
  Li  Li3  1  0.00059625  0.50394639  0.83212810  1
  Br  Br4  1  0.00239193  0.49956274  0.08135049  1
  Br  Br5  1  0.49957618  -0.00239085  0.33135287  1
  Br  Br6  1  -0.00237877  0.50046691  0.58135374  1
  Br  Br7  1  0.50039818  0.00238868  0.83135520  1
