# generated using pymatgen
data_LiI
_symmetry_space_group_name_H-M   'P 1'
_cell_length_a   14.94212616
_cell_length_b   4.63824029
_cell_length_c   8.10937846
_cell_angle_alpha   90.00028101
_cell_angle_beta   89.99826856
_cell_angle_gamma   90.00028027
_symmetry_Int_Tables_number   1
_chemical_formula_structural   LiI
_chemical_formula_sum   'Li8 I8'
_cell_volume   562.02186574
_cell_formula_units_Z   8
loop_
 _symmetry_equiv_pos_site_id
 _symmetry_equiv_pos_as_xyz
  1  'x, y, z'
loop_
 _atom_site_type_symbol
 _atom_site_label
 _atom_site_symmetry_multiplicity
 _atom_site_fract_x
 _atom_site_fract_y
 _atom_site_fract_z
 _atom_site_occupancy
  Li  Li0  1  0.57245819  0.50352348  0.66625501  1
  Li  Li1  1  0.57245737  0.99649343  0.16625641  1
  Li  Li2  1  0.07245739  0.99648280  0.33373648  1
  Li  Li3  1  0.92754172  0.49647851  0.16626454  1
  Li  Li4  1  0.42754230  0.00352482  0.83374407  1
  Li  Li5  1  0.92754329  0.00349874  0.66626286  1
  Li  Li6  1  0.07245800  0.50350407  0.83373400  1
  Li  Li7  1  0.42754153  0.49649119  0.33374635  1
  I  I8  1  0.38346741  0.99670289  0.16586950  1
  I  I9  1  0.38346901  0.50330574  0.66587074  1
  I  I10  1  0.88346925  0.50328633  0.83414342  1
  I  I11  1  0.11653299  0.00329052  0.66585408  1
  I  I12  1  0.61653002  0.49671246  0.33413090  1
  I  I13  1  0.11653123  0.49669721  0.16585622  1
  I  I14  1  0.88346741  0.99669704  0.33414480  1
  I  I15  1  0.61653289  0.00331076  0.83413063  1
