# generated using pymatgen
data_LiBr
_symmetry_space_group_name_H-M   'P 1'
_cell_length_a   14.36504047
_cell_length_b   14.36503099
_cell_length_c   4.01130964
_cell_angle_alpha   90.00005435
_cell_angle_beta   90.00005710
_cell_angle_gamma   90.00018685
_symmetry_Int_Tables_number   1
_chemical_formula_structural   LiBr
_chemical_formula_sum   'Li16 Br16'
_cell_volume   827.75079750
_cell_formula_units_Z   16
loop_
 _symmetry_equiv_pos_site_id
 _symmetry_equiv_pos_as_xyz
  1  'x, y, z'
loop_
 _atom_site_type_symbol
 _atom_site_label
 _atom_site_symmetry_multiplicity
 _atom_site_fract_x
 _atom_site_fract_y
 _atom_site_fract_z
 _atom_site_occupancy
  Li  Li0  1  0.58549799  0.33162057  0.71213920  1
  Li  Li1  1  0.16837911  0.08549809  -0.21214154  1
  Li  Li2  1  0.58549846  0.83162073  0.53786000  1
  Li  Li3  1  0.41450189  0.66837924  0.71214291  1
  Li  Li4  1  0.83162088  0.91450214  -0.21214218  1
  Li  Li5  1  0.66837922  0.08549788  0.96213907  1
  Li  Li6  1  0.33162083  0.91450252  0.96214441  1
  Li  Li7  1  0.16837921  0.58549789  0.46214314  1
  Li  Li8  1  0.83162099  0.41450200  0.46213585  1
  Li  Li9  1  0.91450197  0.16837916  0.21213475  1
  Li  Li10  1  0.33162066  0.41450204  0.28785985  1
  Li  Li11  1  0.08549807  0.83162046  0.21214544  1
  Li  Li12  1  0.66837907  0.58549747  0.28786159  1
  Li  Li13  1  0.08549771  0.33162084  0.03786219  1
  Li  Li14  1  0.91450223  0.66837973  0.03785621  1
  Li  Li15  1  0.41450167  0.16837925  0.53785919  1
  Br  Br16  1  0.41031087  0.83876563  0.47225081  1
  Br  Br17  1  0.66123538  0.91031016  0.02775437  1
  Br  Br18  1  0.41031110  0.33876531  0.77775031  1
  Br  Br19  1  0.58968886  0.16123470  0.47224927  1
  Br  Br20  1  0.33876515  0.08968978  0.02774818  1
  Br  Br21  1  0.16123477  0.91031032  0.72225738  1
  Br  Br22  1  0.83876427  0.08968952  0.72223927  1
  Br  Br23  1  0.66123475  0.41031021  0.22225042  1
  Br  Br24  1  0.33876465  0.58968959  0.22224860  1
  Br  Br25  1  0.08968919  0.66123466  0.97225221  1
  Br  Br26  1  0.83876535  0.58968974  0.52774409  1
  Br  Br27  1  0.91031092  0.33876560  0.97224370  1
  Br  Br28  1  0.16123567  0.41031070  0.52775757  1
  Br  Br29  1  0.91031091  0.83876535  0.27774803  1
  Br  Br30  1  0.08968885  0.16123440  0.27775128  1
  Br  Br31  1  0.58968934  0.66123434  0.77775445  1
