# generated using pymatgen
data_LiBr
_symmetry_space_group_name_H-M   'P 1'
_cell_length_a   11.52847655
_cell_length_b   11.52849883
_cell_length_c   7.91827395
_cell_angle_alpha   89.98980760
_cell_angle_beta   90.01013619
_cell_angle_gamma   120.00071474
_symmetry_Int_Tables_number   1
_chemical_formula_structural   LiBr
_chemical_formula_sum   'Li18 Br18'
_cell_volume   911.38672316
_cell_formula_units_Z   18
loop_
 _symmetry_equiv_pos_site_id
 _symmetry_equiv_pos_as_xyz
  1  'x, y, z'
loop_
 _atom_site_type_symbol
 _atom_site_label
 _atom_site_symmetry_multiplicity
 _atom_site_fract_x
 _atom_site_fract_y
 _atom_site_fract_z
 _atom_site_occupancy
  Li  Li0  1  -0.07290598  0.46169075  0.10976732  1
  Li  Li1  1  -0.07286812  0.46540626  0.60975293  1
  Li  Li2  1  0.87164202  0.73957171  0.27643501  1
  Li  Li3  1  0.86794370  0.12840413  0.27641137  1
  Li  Li4  1  0.20492921  0.79872393  0.44308037  1
  Li  Li5  1  0.53826194  0.46538987  0.10974637  1
  Li  Li6  1  0.86792666  0.73953575  0.77642037  1
  Li  Li7  1  0.87159577  0.13205638  0.77641307  1
  Li  Li8  1  0.53459365  0.07286987  0.10975241  1
  Li  Li9  1  0.53461064  0.46173860  0.60974669  1
  Li  Li10  1  0.26042776  0.12835817  0.77643283  1
  Li  Li11  1  0.26046401  0.13207301  0.27641969  1
  Li  Li12  1  0.20126045  0.40620219  0.44308590  1
  Li  Li13  1  0.20127635  0.79507148  0.94307912  1
  Li  Li14  1  0.53831117  0.07290808  0.60976721  1
  Li  Li15  1  0.20497578  0.40623909  0.94310094  1
  Li  Li16  1  0.59376110  0.79502406  0.44310005  1
  Li  Li17  1  0.59379650  0.79873971  0.94308599  1
  Br  Br18  1  0.78551413  0.21130616  0.03703455  1
  Br  Br19  1  0.78552049  0.57419294  0.53701022  1
  Br  Br20  1  0.12202607  0.88115118  0.20370216  1
  Br  Br21  1  0.75915375  0.87802190  0.20367546  1
  Br  Br22  1  0.45531122  0.90751244  0.37034161  1
  Br  Br23  1  0.78864368  0.57417854  0.03700913  1
  Br  Br24  1  0.75913920  0.88114551  0.70367624  1
  Br  Br25  1  0.12197745  0.24084541  0.70367496  1
  Br  Br26  1  0.42580629  0.21447944  0.03700911  1
  Br  Br27  1  0.42582105  0.21135565  0.53700906  1
  Br  Br28  1  0.11884742  0.87797356  0.70370205  1
  Br  Br29  1  0.11885349  0.24085994  0.20367619  1
  Br  Br30  1  0.09247412  0.54781418  0.37034290  1
  Br  Br31  1  0.09248764  0.54468967  0.87034291  1
  Br  Br32  1  0.78869382  0.21448461  0.53703458  1
  Br  Br33  1  0.45535945  0.54781863  0.87036842  1
  Br  Br34  1  0.45218168  0.54464005  0.37036914  1
  Br  Br35  1  0.45218645  0.90752717  0.87034231  1
