# generated using pymatgen
data_LiBr
_symmetry_space_group_name_H-M   'P 1'
_cell_length_a   7.78902018
_cell_length_b   7.78902009
_cell_length_c   5.50376461
_cell_angle_alpha   90.00034460
_cell_angle_beta   90.00008803
_cell_angle_gamma   89.99998452
_symmetry_Int_Tables_number   1
_chemical_formula_structural   LiBr
_chemical_formula_sum   'Li8 Br8'
_cell_volume   333.90698507
_cell_formula_units_Z   8
loop_
 _symmetry_equiv_pos_site_id
 _symmetry_equiv_pos_as_xyz
  1  'x, y, z'
loop_
 _atom_site_type_symbol
 _atom_site_label
 _atom_site_symmetry_multiplicity
 _atom_site_fract_x
 _atom_site_fract_y
 _atom_site_fract_z
 _atom_site_occupancy
  Li  Li0  1  0.49997802  0.24997593  0.74997669  1
  Li  Li1  1  0.75002995  0.49996846  0.25005135  1
  Li  Li2  1  -0.00002118  0.74998621  0.75015402  1
  Li  Li3  1  0.24998912  0.50001697  0.25013708  1
  Li  Li4  1  0.00002074  0.25002394  0.75002883  1
  Li  Li5  1  0.50002101  0.75001539  0.74984638  1
  Li  Li6  1  0.25001191  -0.00001768  0.24986776  1
  Li  Li7  1  0.74997126  0.00002875  0.24994765  1
  Br  Br8  1  0.75003946  0.50034716  0.75008514  1
  Br  Br9  1  0.49965049  0.75006426  0.24987793  1
  Br  Br10  1  0.25005707  0.00035290  0.74988605  1
  Br  Br11  1  0.50034917  0.24996799  0.24992091  1
  Br  Br12  1  0.74995981  -0.00034755  0.74991179  1
  Br  Br13  1  0.24994222  0.49964765  0.75011078  1
  Br  Br14  1  -0.00034968  0.25003271  0.25007743  1
  Br  Br15  1  0.00035065  0.74993690  0.25012021  1
