# generated using pymatgen
data_LiBr
_symmetry_space_group_name_H-M   'P 1'
_cell_length_a   3.89681628
_cell_length_b   3.89679141
_cell_length_c   11.00008166
_cell_angle_alpha   89.99958548
_cell_angle_beta   89.99992334
_cell_angle_gamma   89.99740626
_symmetry_Int_Tables_number   1
_chemical_formula_structural   LiBr
_chemical_formula_sum   'Li4 Br4'
_cell_volume   167.03712244
_cell_formula_units_Z   4
loop_
 _symmetry_equiv_pos_site_id
 _symmetry_equiv_pos_as_xyz
  1  'x, y, z'
loop_
 _atom_site_type_symbol
 _atom_site_label
 _atom_site_symmetry_multiplicity
 _atom_site_fract_x
 _atom_site_fract_y
 _atom_site_fract_z
 _atom_site_occupancy
  Li  Li0  1  -0.00193639  0.49699255  0.27215069  1
  Li  Li1  1  0.49694109  0.00191785  0.52215252  1
  Li  Li2  1  0.00193519  0.50300262  0.77214672  1
  Li  Li3  1  0.50305896  -0.00191956  0.02215556  1
  Br  Br4  1  -0.00001831  0.49874089  0.02130493  1
  Br  Br5  1  0.49880874  -0.00000124  0.27129751  1
  Br  Br6  1  0.00001930  0.50126163  0.52130313  1
  Br  Br7  1  0.50119142  0.00000526  0.77129750  1
