# generated using pymatgen
data_KI
_symmetry_space_group_name_H-M   'P 1'
_cell_length_a   10.15927079
_cell_length_b   7.18944391
_cell_length_c   5.08186480
_cell_angle_alpha   90.00000289
_cell_angle_beta   89.99999775
_cell_angle_gamma   89.99999874
_symmetry_Int_Tables_number   1
_chemical_formula_structural   KI
_chemical_formula_sum   'K4 I4'
_cell_volume   371.17690242
_cell_formula_units_Z   4
loop_
 _symmetry_equiv_pos_site_id
 _symmetry_equiv_pos_as_xyz
  1  'x, y, z'
loop_
 _atom_site_type_symbol
 _atom_site_label
 _atom_site_symmetry_multiplicity
 _atom_site_fract_x
 _atom_site_fract_y
 _atom_site_fract_z
 _atom_site_occupancy
  K  K0  1  0.12413173  0.24791890  0.32150185  1
  K  K1  1  0.62413173  0.25208111  0.32150200  1
  K  K2  1  0.87586827  0.75208109  0.82150357  1
  K  K3  1  0.37586827  0.74791890  0.82150341  1
  I  I4  1  0.37428937  0.24781599  0.82082100  1
  I  I5  1  0.87428938  0.25218400  0.82082070  1
  I  I6  1  0.62571062  0.75218403  0.32082163  1
  I  I7  1  0.12571063  0.74781598  0.32082195  1
