# generated using pymatgen
data_LiI
_symmetry_space_group_name_H-M   'P 1'
_cell_length_a   7.44127764
_cell_length_b   7.44060200
_cell_length_c   13.49475963
_cell_angle_alpha   89.99978228
_cell_angle_beta   90.00010676
_cell_angle_gamma   120.14138112
_symmetry_Int_Tables_number   1
_chemical_formula_structural   LiI
_chemical_formula_sum   'Li6 I6'
_cell_volume   646.14633595
_cell_formula_units_Z   6
loop_
 _symmetry_equiv_pos_site_id
 _symmetry_equiv_pos_as_xyz
  1  'x, y, z'
loop_
 _atom_site_type_symbol
 _atom_site_label
 _atom_site_symmetry_multiplicity
 _atom_site_fract_x
 _atom_site_fract_y
 _atom_site_fract_z
 _atom_site_occupancy
  Li  Li0  1  -0.16457438  0.41786644  0.88507023  1
  Li  Li1  1  0.41783360  -0.16458041  0.71824548  1
  Li  Li2  1  0.58216478  0.16457998  0.21824561  1
  Li  Li3  1  0.41810016  0.58244743  0.05163993  1
  Li  Li4  1  0.58189067  0.41754512  0.55164025  1
  Li  Li5  1  0.16457605  0.58213676  0.38507131  1
  I  I6  1  0.63001626  0.24989828  0.71681815  1
  I  I7  1  0.38085577  0.63002227  0.55013823  1
  I  I8  1  0.61914837  0.36998255  0.05013953  1
  I  I9  1  0.24987829  0.61923734  0.88350152  1
  I  I10  1  0.75012461  0.38076306  0.38350232  1
  I  I11  1  0.36998583  0.75010118  0.21681911  1
