# generated using pymatgen
data_LiBr
_symmetry_space_group_name_H-M   'P 1'
_cell_length_a   4.35700426
_cell_length_b   7.88616881
_cell_length_c   5.69854164
_cell_angle_alpha   90.00000214
_cell_angle_beta   90.94824002
_cell_angle_gamma   90.00002045
_symmetry_Int_Tables_number   1
_chemical_formula_structural   LiBr
_chemical_formula_sum   'Li4 Br4'
_cell_volume   195.77548145
_cell_formula_units_Z   4
loop_
 _symmetry_equiv_pos_site_id
 _symmetry_equiv_pos_as_xyz
  1  'x, y, z'
loop_
 _atom_site_type_symbol
 _atom_site_label
 _atom_site_symmetry_multiplicity
 _atom_site_fract_x
 _atom_site_fract_y
 _atom_site_fract_z
 _atom_site_occupancy
  Li  Li0  1  0.11916213  0.16569712  0.75273805  1
  Li  Li1  1  0.61915867  0.66569328  0.75273938  1
  Li  Li2  1  0.11916014  0.83430314  0.25273789  1
  Li  Li3  1  0.61916091  0.33430619  0.25273937  1
  Br  Br4  1  0.11862556  0.16159952  0.23093001  1
  Br  Br5  1  0.61862460  0.66159864  0.23092984  1
  Br  Br6  1  0.11862351  0.83840094  0.73092992  1
  Br  Br7  1  0.61862680  0.33840116  0.73092974  1
