# generated using pymatgen
data_LiBr
_symmetry_space_group_name_H-M   'P 1'
_cell_length_a   10.39228377
_cell_length_b   10.39228862
_cell_length_c   12.19718253
_cell_angle_alpha   90.00549360
_cell_angle_beta   89.99441868
_cell_angle_gamma   120.02230633
_symmetry_Int_Tables_number   1
_chemical_formula_structural   LiBr
_chemical_formula_sum   'Li18 Br18'
_cell_volume   1140.55094015
_cell_formula_units_Z   18
loop_
 _symmetry_equiv_pos_site_id
 _symmetry_equiv_pos_as_xyz
  1  'x, y, z'
loop_
 _atom_site_type_symbol
 _atom_site_label
 _atom_site_symmetry_multiplicity
 _atom_site_fract_x
 _atom_site_fract_y
 _atom_site_fract_z
 _atom_site_occupancy
  Li  Li0  1  0.75119414  0.75088388  0.53433550  1
  Li  Li1  1  0.75112333  0.00025565  0.03427122  1
  Li  Li2  1  0.58244809  0.91547135  0.70100375  1
  Li  Li3  1  0.33309838  0.41760134  0.70094932  1
  Li  Li4  1  0.91573137  0.33356850  0.86761652  1
  Li  Li5  1  0.24906373  0.00023403  0.53428211  1
  Li  Li6  1  0.33307870  0.91554255  0.20093762  1
  Li  Li7  1  0.58239845  0.66690164  0.20094919  1
  Li  Li8  1  0.99974456  0.24887571  0.53427247  1
  Li  Li9  1  0.99976516  0.75093503  0.03428464  1
  Li  Li10  1  0.08452743  0.41755150  0.20100341  1
  Li  Li11  1  0.08445855  0.66691966  0.70093696  1
  Li  Li12  1  0.66641129  0.58220764  0.86760352  1
  Li  Li13  1  0.66643352  0.08427012  0.36761668  1
  Li  Li14  1  0.24911542  0.24880741  0.03433550  1
  Li  Li15  1  0.91578329  0.58214138  0.36766913  1
  Li  Li16  1  0.41786052  0.08421814  0.86767013  1
  Li  Li17  1  0.41779164  0.33358777  0.36760441  1
  Br  Br18  1  0.00043046  0.75539983  0.53410817  1
  Br  Br19  1  0.00044344  0.24498381  0.03399976  1
  Br  Br20  1  0.57793195  0.66623561  0.70077350  1
  Br  Br21  1  0.08832098  0.42215441  0.70066947  1
  Br  Br22  1  0.91117679  0.57834405  0.86733550  1
  Br  Br23  1  0.24451162  0.24501160  0.53400321  1
  Br  Br24  1  0.08835090  0.66622242  0.20066715  1
  Br  Br25  1  0.57784390  0.91167847  0.20066824  1
  Br  Br26  1  0.75501768  0.99955564  0.53400047  1
  Br  Br27  1  0.75498847  0.75549015  0.03400136  1
  Br  Br28  1  0.33376335  0.42206651  0.20077492  1
  Br  Br29  1  0.33377693  0.91164816  0.70066733  1
  Br  Br30  1  0.42168286  0.33288815  0.86733226  1
  Br  Br31  1  0.42165535  0.08882363  0.36733482  1
  Br  Br32  1  0.24460107  0.99957133  0.03410942  1
  Br  Br33  1  0.91126824  0.33290504  0.36744341  1
  Br  Br34  1  0.66709656  0.08873272  0.86744134  1
  Br  Br35  1  0.66711187  0.57831517  0.36733174  1
