# generated using pymatgen
data_LiBr
_symmetry_space_group_name_H-M   'P 1'
_cell_length_a   11.59590536
_cell_length_b   11.59590185
_cell_length_c   7.70592517
_cell_angle_alpha   89.99991023
_cell_angle_beta   90.00008655
_cell_angle_gamma   120.00093047
_symmetry_Int_Tables_number   1
_chemical_formula_structural   LiBr
_chemical_formula_sum   'Li18 Br18'
_cell_volume   897.34725726
_cell_formula_units_Z   18
loop_
 _symmetry_equiv_pos_site_id
 _symmetry_equiv_pos_as_xyz
  1  'x, y, z'
loop_
 _atom_site_type_symbol
 _atom_site_label
 _atom_site_symmetry_multiplicity
 _atom_site_fract_x
 _atom_site_fract_y
 _atom_site_fract_z
 _atom_site_occupancy
  Li  Li0  1  0.86949148  0.12745097  0.72332519  1
  Li  Li1  1  0.86949569  0.74204479  0.22330623  1
  Li  Li2  1  0.20571846  0.79714348  0.88882595  1
  Li  Li3  1  0.59142885  0.79428633  0.88881693  1
  Li  Li4  1  0.53909675  0.07531745  0.05657290  1
  Li  Li5  1  0.87254223  0.74203944  0.72330804  1
  Li  Li6  1  0.59142736  0.79714479  0.38881460  1
  Li  Li7  1  0.20571400  0.40857300  0.38881646  1
  Li  Li8  1  0.25795421  0.13050538  0.72330704  1
  Li  Li9  1  0.25795983  0.12745895  0.22330909  1
  Li  Li10  1  0.20285493  0.79428058  0.38882532  1
  Li  Li11  1  0.20285634  0.40857373  0.88881413  1
  Li  Li12  1  0.92467912  0.46378276  0.05657093  1
  Li  Li13  1  0.92468170  0.46090245  0.55657214  1
  Li  Li14  1  0.87254868  0.13050890  0.22332681  1
  Li  Li15  1  0.53910543  0.46379272  0.55657977  1
  Li  Li16  1  0.53621025  0.46089542  0.05658016  1
  Li  Li17  1  0.53621353  0.07532021  0.55657311  1
  Br  Br18  1  0.11848680  0.87903269  0.14756537  1
  Br  Br19  1  0.11847652  0.23944538  0.64755217  1
  Br  Br20  1  0.45433002  0.54803686  0.31477392  1
  Br  Br21  1  0.09371026  0.54566756  0.31476217  1
  Br  Br22  1  0.78766469  0.57289142  0.48153768  1
  Br  Br23  1  0.12096983  0.23944685  0.14755314  1
  Br  Br24  1  0.09371005  0.54803867  0.81476585  1
  Br  Br25  1  0.45433177  -0.09371203  0.81476368  1
  Br  Br26  1  0.76055565  0.88152338  0.14755302  1
  Br  Br27  1  0.76055445  0.87902987  0.64755294  1
  Br  Br28  1  0.45196484  0.54567067  0.81477458  1
  Br  Br29  1  0.45196027  -0.09371040  0.31476780  1
  Br  Br30  1  0.42710884  0.21477487  0.48154292  1
  Br  Br31  1  0.42710848  0.21233544  -0.01846084  1
  Br  Br32  1  0.12096848  0.88151361  0.64756603  1
  Br  Br33  1  0.78766079  0.21476511  -0.01844108  1
  Br  Br34  1  0.78523231  0.21233775  0.48155932  1
  Br  Br35  1  0.78522712  0.57289097  -0.01845790  1
