# generated using pymatgen
data_LiBr
_symmetry_space_group_name_H-M   'P 1'
_cell_length_a   10.98037411
_cell_length_b   10.98037699
_cell_length_c   10.05914491
_cell_angle_alpha   90.00183863
_cell_angle_beta   89.99813676
_cell_angle_gamma   120.00187584
_symmetry_Int_Tables_number   1
_chemical_formula_structural   LiBr
_chemical_formula_sum   'Li18 Br18'
_cell_volume   1050.31090442
_cell_formula_units_Z   18
loop_
 _symmetry_equiv_pos_site_id
 _symmetry_equiv_pos_as_xyz
  1  'x, y, z'
loop_
 _atom_site_type_symbol
 _atom_site_label
 _atom_site_symmetry_multiplicity
 _atom_site_fract_x
 _atom_site_fract_y
 _atom_site_fract_z
 _atom_site_occupancy
  Li  Li0  1  0.24640662  0.00266757  0.61999833  1
  Li  Li1  1  0.24640249  0.24373838  0.11999272  1
  Li  Li2  1  0.33066551  0.42025915  0.78666465  1
  Li  Li3  1  0.08959288  0.66933217  0.78666117  1
  Li  Li4  1  0.66400055  0.57707395  0.95332902  1
  Li  Li5  1  -0.00266532  0.24374026  0.61999389  1
  Li  Li6  1  0.08959525  0.42026483  0.28666013  1
  Li  Li7  1  0.33066778  0.91040783  0.28666108  1
  Li  Li8  1  0.75626156  0.75359684  0.61999409  1
  Li  Li9  1  0.75625965  0.00266684  0.11999609  1
  Li  Li10  1  0.57974025  0.66933424  0.28666481  1
  Li  Li11  1  0.57973614  0.91040445  0.78666130  1
  Li  Li12  1  0.42292825  0.08693027  0.95332706  1
  Li  Li13  1  0.42292665  0.33599810  0.45332658  1
  Li  Li14  1  -0.00266806  0.75359265  0.11999820  1
  Li  Li15  1  0.66399905  0.08692605  0.45333193  1
  Li  Li16  1  0.91307501  0.33600249  0.95333303  1
  Li  Li17  1  0.91306881  0.57707126  0.45332702  1
  Br  Br18  1  0.00222778  0.78202821  0.61771825  1
  Br  Br19  1  0.00223228  0.22019999  0.11770887  1
  Br  Br20  1  0.55130471  0.66443874  0.78438541  1
  Br  Br21  1  0.11313861  0.44870113  0.78438175  1
  Br  Br22  1  0.88463165  0.55352838  0.95104839  1
  Br  Br23  1  0.21796554  0.22019454  0.61771492  1
  Br  Br24  1  0.11313395  0.66443504  0.28437530  1
  Br  Br25  1  0.55129805  0.88686114  0.28438185  1
  Br  Br26  1  0.77980045  -0.00223266  0.61770809  1
  Br  Br27  1  0.77980540  0.78203544  0.11771538  1
  Br  Br28  1  0.33556096  0.44869494  0.28438430  1
  Br  Br29  1  0.33556590  0.88686605  0.78437507  1
  Br  Br30  1  0.44646718  0.33110102  0.95104144  1
  Br  Br31  1  0.44647223  0.11536807  0.45104858  1
  Br  Br32  1  0.21797079  -0.00222789  0.11771790  1
  Br  Br33  1  0.88463820  0.33110537  0.45105111  1
  Br  Br34  1  0.66889513  0.11536298  0.95105185  1
  Br  Br35  1  0.66889811  0.55353219  0.45104142  1
