# generated using pymatgen
data_NaBr
_symmetry_space_group_name_H-M   'P 1'
_cell_length_a   7.26161081
_cell_length_b   4.19621339
_cell_length_c   7.21674966
_cell_angle_alpha   89.99967517
_cell_angle_beta   89.99921982
_cell_angle_gamma   90.00000145
_symmetry_Int_Tables_number   1
_chemical_formula_structural   NaBr
_chemical_formula_sum   'Na4 Br4'
_cell_volume   219.90351678
_cell_formula_units_Z   4
loop_
 _symmetry_equiv_pos_site_id
 _symmetry_equiv_pos_as_xyz
  1  'x, y, z'
loop_
 _atom_site_type_symbol
 _atom_site_label
 _atom_site_symmetry_multiplicity
 _atom_site_fract_x
 _atom_site_fract_y
 _atom_site_fract_z
 _atom_site_occupancy
  Na  Na0  1  0.75087838  0.25173127  0.43055203  1
  Na  Na1  1  0.25087811  0.74826873  0.43055196  1
  Na  Na2  1  0.24912179  0.74827143  0.93055295  1
  Na  Na3  1  0.74912150  0.25172854  0.93055302  1
  Br  Br4  1  0.08307688  0.24907188  0.68078919  1
  Br  Br5  1  0.58307679  0.75092815  0.68078944  1
  Br  Br6  1  0.91692332  0.75093047  0.18079192  1
  Br  Br7  1  0.41692323  0.24906955  0.18079166  1
