# generated using pymatgen
data_KCl
_symmetry_space_group_name_H-M   'P 1'
_cell_length_a   4.11641385
_cell_length_b   4.11649419
_cell_length_c   15.12930908
_cell_angle_alpha   90.00013153
_cell_angle_beta   89.99998959
_cell_angle_gamma   90.00011485
_symmetry_Int_Tables_number   1
_chemical_formula_structural   KCl
_chemical_formula_sum   'K4 Cl4'
_cell_volume   256.36907321
_cell_formula_units_Z   4
loop_
 _symmetry_equiv_pos_site_id
 _symmetry_equiv_pos_as_xyz
  1  'x, y, z'
loop_
 _atom_site_type_symbol
 _atom_site_label
 _atom_site_symmetry_multiplicity
 _atom_site_fract_x
 _atom_site_fract_y
 _atom_site_fract_z
 _atom_site_occupancy
  K  K0  1  0.75112174  0.25502507  0.51110847  1
  K  K1  1  0.25461590  0.24910452  0.26119001  1
  K  K2  1  0.24887811  0.74497738  0.01110814  1
  K  K3  1  0.74538413  0.75089519  0.76118963  1
  Cl  Cl4  1  0.25137137  0.75430558  0.42436338  1
  Cl  Cl5  1  0.75391559  0.74858514  0.17427637  1
  Cl  Cl6  1  0.74862837  0.24569394  0.92436251  1
  Cl  Cl7  1  0.24608480  0.25141318  0.67427621  1
