# generated using pymatgen
data_KI
_symmetry_space_group_name_H-M   'P 1'
_cell_length_a   6.56556755
_cell_length_b   6.55922862
_cell_length_c   9.17653105
_cell_angle_alpha   89.99829567
_cell_angle_beta   110.88285724
_cell_angle_gamma   89.99982450
_symmetry_Int_Tables_number   1
_chemical_formula_structural   KI
_chemical_formula_sum   'K4 I4'
_cell_volume   369.22841908
_cell_formula_units_Z   4
loop_
 _symmetry_equiv_pos_site_id
 _symmetry_equiv_pos_as_xyz
  1  'x, y, z'
loop_
 _atom_site_type_symbol
 _atom_site_label
 _atom_site_symmetry_multiplicity
 _atom_site_fract_x
 _atom_site_fract_y
 _atom_site_fract_z
 _atom_site_occupancy
  K  K0  1  0.49792944  0.62391926  0.64038352  1
  K  K1  1  -0.00207075  0.12391929  0.64038348  1
  K  K2  1  0.49792916  0.37608256  0.14038339  1
  K  K3  1  -0.00207106  -0.12391745  0.14038322  1
  I  I4  1  0.91112755  0.37585823  0.96568172  1
  I  I5  1  0.41112822  0.87585821  0.96568181  1
  I  I6  1  0.91112709  0.62413993  0.46568179  1
  I  I7  1  0.41112759  0.12413998  0.46568188  1
