# generated using pymatgen
data_LiBr
_symmetry_space_group_name_H-M   'P 1'
_cell_length_a   8.90523629
_cell_length_b   8.90529123
_cell_length_c   5.57319716
_cell_angle_alpha   90.00000175
_cell_angle_beta   89.99996855
_cell_angle_gamma   90.00025761
_symmetry_Int_Tables_number   1
_chemical_formula_structural   LiBr
_chemical_formula_sum   'Li8 Br8'
_cell_volume   441.97528234
_cell_formula_units_Z   8
loop_
 _symmetry_equiv_pos_site_id
 _symmetry_equiv_pos_as_xyz
  1  'x, y, z'
loop_
 _atom_site_type_symbol
 _atom_site_label
 _atom_site_symmetry_multiplicity
 _atom_site_fract_x
 _atom_site_fract_y
 _atom_site_fract_z
 _atom_site_occupancy
  Li  Li0  1  0.35761147  0.64045801  0.24985711  1
  Li  Li1  1  0.14045703  0.14239023  0.25015051  1
  Li  Li2  1  0.64238860  0.35954183  0.24984744  1
  Li  Li3  1  0.35953936  0.35761132  0.75014929  1
  Li  Li4  1  0.64046063  0.64238861  0.75014824  1
  Li  Li5  1  0.14239002  0.85954168  0.74984645  1
  Li  Li6  1  0.85954255  0.85760940  0.25014996  1
  Li  Li7  1  0.85761012  0.14045831  0.74985745  1
  Br  Br8  1  0.15380463  0.84958314  0.24977938  1
  Br  Br9  1  0.34958051  0.34619928  0.25021769  1
  Br  Br10  1  0.84619576  0.15041697  0.24978106  1
  Br  Br11  1  0.15041927  0.15380409  0.75021829  1
  Br  Br12  1  0.84958088  0.84619586  0.75021845  1
  Br  Br13  1  0.34619732  0.65041869  0.74978181  1
  Br  Br14  1  0.65041944  0.65380103  0.25021673  1
  Br  Br15  1  0.65380242  0.34958156  0.74978015  1
