# generated using pymatgen
data_NaI
_symmetry_space_group_name_H-M   'P 1'
_cell_length_a   14.20840900
_cell_length_b   14.20840689
_cell_length_c   7.74138870
_cell_angle_alpha   90.00000890
_cell_angle_beta   90.00003647
_cell_angle_gamma   120.10299934
_symmetry_Int_Tables_number   1
_chemical_formula_structural   NaI
_chemical_formula_sum   'Na12 I12'
_cell_volume   1352.03724610
_cell_formula_units_Z   12
loop_
 _symmetry_equiv_pos_site_id
 _symmetry_equiv_pos_as_xyz
  1  'x, y, z'
loop_
 _atom_site_type_symbol
 _atom_site_label
 _atom_site_symmetry_multiplicity
 _atom_site_fract_x
 _atom_site_fract_y
 _atom_site_fract_z
 _atom_site_occupancy
  Na  Na0  1  0.65981090  0.12097665  0.62646344  1
  Na  Na1  1  0.53865514  0.65967404  0.62645794  1
  Na  Na2  1  0.46113680  0.12095818  0.12637710  1
  Na  Na3  1  0.34032707  0.46134709  0.12645676  1
  Na  Na4  1  0.65967316  0.53865387  0.12645725  1
  Na  Na5  1  0.12097713  0.65981104  0.12646290  1
  Na  Na6  1  0.53886232  0.87904100  0.12637732  1
  Na  Na7  1  0.87902172  0.34019001  0.12646349  1
  Na  Na8  1  0.87904044  0.53886167  0.62637802  1
  Na  Na9  1  0.34018940  0.87902126  0.62646243  1
  Na  Na10  1  0.46134624  0.34032668  0.62645635  1
  Na  Na11  1  0.12095827  0.46113694  0.62637752  1
  I  I12  1  0.87539428  0.55176999  0.02603649  1
  I  I13  1  0.32358386  0.87552729  0.02599945  1
  I  I14  1  0.67650201  0.55224108  0.52606604  1
  I  I15  1  0.12447151  0.67641609  0.52600181  1
  I  I16  1  0.87552719  0.32358360  0.52600056  1
  I  I17  1  0.55176981  0.87539407  0.52603619  1
  I  I18  1  0.32349953  0.44776087  0.52606716  1
  I  I19  1  0.44823090  0.12460470  0.52603805  1
  I  I20  1  0.44775921  0.32349858  0.02606677  1
  I  I21  1  0.12460491  0.44823057  0.02603883  1
  I  I22  1  0.67641628  0.12447235  0.02600204  1
  I  I23  1  0.55224191  0.67650239  0.02606656  1
