# generated using pymatgen
data_LiBr
_symmetry_space_group_name_H-M   'P 1'
_cell_length_a   6.68643392
_cell_length_b   3.85647641
_cell_length_c   6.45433717
_cell_angle_alpha   90.00250619
_cell_angle_beta   89.99783122
_cell_angle_gamma   89.99979567
_symmetry_Int_Tables_number   1
_chemical_formula_structural   LiBr
_chemical_formula_sum   'Li4 Br4'
_cell_volume   166.43201987
_cell_formula_units_Z   4
loop_
 _symmetry_equiv_pos_site_id
 _symmetry_equiv_pos_as_xyz
  1  'x, y, z'
loop_
 _atom_site_type_symbol
 _atom_site_label
 _atom_site_symmetry_multiplicity
 _atom_site_fract_x
 _atom_site_fract_y
 _atom_site_fract_z
 _atom_site_occupancy
  Li  Li0  1  0.24975169  0.25004451  0.32152221  1
  Li  Li1  1  0.74978104  0.75011346  0.32151535  1
  Li  Li2  1  0.75022087  0.75011956  0.82152387  1
  Li  Li3  1  0.25024131  0.25004259  0.82151885  1
  Br  Br4  1  0.58405934  0.24935755  0.07065956  1
  Br  Br5  1  0.08405261  0.75048083  0.07072798  1
  Br  Br6  1  0.41595041  0.75048130  0.57072132  1
  Br  Br7  1  0.91594273  0.24936020  0.57066589  1
