# generated using pymatgen
data_LiI
_symmetry_space_group_name_H-M   'P 1'
_cell_length_a   12.62268737
_cell_length_b   12.62268952
_cell_length_c   7.08331300
_cell_angle_alpha   89.99974512
_cell_angle_beta   90.00069382
_cell_angle_gamma   120.00951111
_symmetry_Int_Tables_number   1
_chemical_formula_structural   LiI
_chemical_formula_sum   'Li12 I12'
_cell_volume   977.30283837
_cell_formula_units_Z   12
loop_
 _symmetry_equiv_pos_site_id
 _symmetry_equiv_pos_as_xyz
  1  'x, y, z'
loop_
 _atom_site_type_symbol
 _atom_site_label
 _atom_site_symmetry_multiplicity
 _atom_site_fract_x
 _atom_site_fract_y
 _atom_site_fract_z
 _atom_site_occupancy
  Li  Li0  1  0.11812254  0.46512722  0.84216417  1
  Li  Li1  1  0.65301310  0.11806989  0.84220454  1
  Li  Li2  1  0.34695686  0.46514482  0.34224619  1
  Li  Li3  1  0.88193119  0.34698834  0.34219920  1
  Li  Li4  1  0.11806952  0.65301315  0.34220094  1
  Li  Li5  1  0.46512765  0.11812821  0.34216923  1
  Li  Li6  1  0.65304387  0.53485715  0.34224291  1
  Li  Li7  1  0.53487188  0.88187361  0.34216039  1
  Li  Li8  1  0.53485403  0.65304240  0.84224146  1
  Li  Li9  1  0.88187446  0.53487322  0.84216965  1
  Li  Li10  1  0.34698453  0.88192821  0.84220409  1
  Li  Li11  1  0.46514372  0.34695460  0.84224335  1
  I  I12  1  0.12673345  0.68302783  0.95397590  1
  I  I13  1  0.44377496  0.12674845  0.95395224  1
  I  I14  1  0.55630822  0.68305817  0.45390253  1
  I  I15  1  0.87325262  0.55622669  0.45395675  1
  I  I16  1  0.12674764  0.44377400  0.45396741  1
  I  I17  1  0.68302742  0.12673198  0.45397552  1
  I  I18  1  0.44369465  0.31694351  0.45390386  1
  I  I19  1  0.31697027  0.87326700  0.45397627  1
  I  I20  1  0.31694231  0.44369310  0.95389733  1
  I  I21  1  0.87327008  0.31697235  0.95397495  1
  I  I22  1  0.55622815  0.87325296  0.95397000  1
  I  I23  1  0.68305687  0.55630314  0.95390641  1
