# generated using pymatgen
data_LiBr
_symmetry_space_group_name_H-M   'P 1'
_cell_length_a   3.86563417
_cell_length_b   6.69035230
_cell_length_c   6.39434439
_cell_angle_alpha   90.00000035
_cell_angle_beta   89.99999871
_cell_angle_gamma   90.00007745
_symmetry_Int_Tables_number   1
_chemical_formula_structural   LiBr
_chemical_formula_sum   'Li4 Br4'
_cell_volume   165.37344042
_cell_formula_units_Z   4
loop_
 _symmetry_equiv_pos_site_id
 _symmetry_equiv_pos_as_xyz
  1  'x, y, z'
loop_
 _atom_site_type_symbol
 _atom_site_label
 _atom_site_symmetry_multiplicity
 _atom_site_fract_x
 _atom_site_fract_y
 _atom_site_fract_z
 _atom_site_occupancy
  Li  Li0  1  0.75255455  0.50171327  0.49865784  1
  Li  Li1  1  0.24743992  0.00171801  0.00134185  1
  Li  Li2  1  0.74744601  0.49828767  -0.00134283  1
  Li  Li3  1  0.25256014  -0.00171884  0.50134071  1
  Br  Br4  1  0.25024491  0.66593829  0.24940145  1
  Br  Br5  1  0.74975679  0.16593925  0.25059988  1
  Br  Br6  1  0.24975487  0.33406153  0.74940123  1
  Br  Br7  1  0.75024282  0.83406083  0.75059988  1
