# generated using pymatgen
data_LiI
_symmetry_space_group_name_H-M   'P 1'
_cell_length_a   12.56574683
_cell_length_b   12.56573669
_cell_length_c   7.84906568
_cell_angle_alpha   90.00087899
_cell_angle_beta   89.99893600
_cell_angle_gamma   90.00180299
_symmetry_Int_Tables_number   1
_chemical_formula_structural   LiI
_chemical_formula_sum   'Li16 I16'
_cell_volume   1239.35071917
_cell_formula_units_Z   16
loop_
 _symmetry_equiv_pos_site_id
 _symmetry_equiv_pos_as_xyz
  1  'x, y, z'
loop_
 _atom_site_type_symbol
 _atom_site_label
 _atom_site_symmetry_multiplicity
 _atom_site_fract_x
 _atom_site_fract_y
 _atom_site_fract_z
 _atom_site_occupancy
  Li  Li0  1  0.25678847  0.11217351  0.41249619  1
  Li  Li1  1  0.38782864  0.75678510  0.41249016  1
  Li  Li2  1  0.24321105  0.61217128  0.08750213  1
  Li  Li3  1  0.11216376  0.74322682  0.58750618  1
  Li  Li4  1  0.25677936  0.88784600  0.91249428  1
  Li  Li5  1  0.88784401  0.25677220  0.58750421  1
  Li  Li6  1  0.24322050  0.38784422  0.58750099  1
  Li  Li7  1  0.75677962  0.61215233  0.58750686  1
  Li  Li8  1  0.61215573  0.75677401  0.91250019  1
  Li  Li9  1  0.74322234  0.11215582  0.91249394  1
  Li  Li10  1  0.38784071  0.24322978  0.91248902  1
  Li  Li11  1  0.74320920  0.88783088  0.41249494  1
  Li  Li12  1  0.61216541  0.24321486  0.41249346  1
  Li  Li13  1  0.88783307  0.74321041  0.08749826  1
  Li  Li14  1  0.75678822  0.38782729  0.08750718  1
  Li  Li15  1  0.11217052  0.25678633  0.08750773  1
  I  I16  1  0.75780821  0.58761440  0.94071327  1
  I  I17  1  0.91238202  0.25780619  0.94070874  1
  I  I18  1  0.74218455  0.08760927  0.55929988  1
  I  I19  1  0.58762755  0.24217657  0.05929242  1
  I  I20  1  0.75782410  0.41237409  0.44070697  1
  I  I21  1  0.41237700  0.75782678  0.05929081  1
  I  I22  1  0.74218391  0.91237115  0.05929251  1
  I  I23  1  0.25781704  0.08762482  0.05928962  1
  I  I24  1  0.08762412  0.25781480  0.44071226  1
  I  I25  1  0.24217642  0.58763198  0.44070684  1
  I  I26  1  0.91237397  0.74217960  0.44071440  1
  I  I27  1  0.24219162  0.41239031  0.94071352  1
  I  I28  1  0.08761462  0.74219076  0.94070580  1
  I  I29  1  0.41238654  0.24219925  0.55928840  1
  I  I30  1  0.25781280  0.91238530  0.55929198  1
  I  I31  1  0.58761490  0.75780387  0.55928684  1
