# generated using pymatgen
data_LiBr
_symmetry_space_group_name_H-M   'P 1'
_cell_length_a   3.95223834
_cell_length_b   3.95221804
_cell_length_c   13.04863934
_cell_angle_alpha   89.99888671
_cell_angle_beta   89.99947203
_cell_angle_gamma   90.00101361
_symmetry_Int_Tables_number   1
_chemical_formula_structural   LiBr
_chemical_formula_sum   'Li4 Br4'
_cell_volume   203.82115123
_cell_formula_units_Z   4
loop_
 _symmetry_equiv_pos_site_id
 _symmetry_equiv_pos_as_xyz
  1  'x, y, z'
loop_
 _atom_site_type_symbol
 _atom_site_label
 _atom_site_symmetry_multiplicity
 _atom_site_fract_x
 _atom_site_fract_y
 _atom_site_fract_z
 _atom_site_occupancy
  Li  Li0  1  0.99074615  0.01077782  0.57193410  1
  Li  Li1  1  0.01076925  0.00925826  0.82193531  1
  Li  Li2  1  0.00926443  -0.01078231  0.07193539  1
  Li  Li3  1  -0.01078060  0.99073963  0.32193327  1
  Br  Br4  1  0.49056364  0.00478525  0.44674240  1
  Br  Br5  1  0.00478112  0.50943879  0.69674020  1
  Br  Br6  1  0.50943701  -0.00477842  0.94673925  1
  Br  Br7  1  -0.00478100  0.49056098  0.19674144  1
