# generated using pymatgen
data_LiI
_symmetry_space_group_name_H-M   'P 1'
_cell_length_a   7.32382562
_cell_length_b   4.23594749
_cell_length_c   6.98737168
_cell_angle_alpha   89.99955720
_cell_angle_beta   90.00168820
_cell_angle_gamma   89.99998626
_symmetry_Int_Tables_number   1
_chemical_formula_structural   LiI
_chemical_formula_sum   'Li4 I4'
_cell_volume   216.77161242
_cell_formula_units_Z   4
loop_
 _symmetry_equiv_pos_site_id
 _symmetry_equiv_pos_as_xyz
  1  'x, y, z'
loop_
 _atom_site_type_symbol
 _atom_site_label
 _atom_site_symmetry_multiplicity
 _atom_site_fract_x
 _atom_site_fract_y
 _atom_site_fract_z
 _atom_site_occupancy
  Li  Li0  1  0.75125321  0.74997759  0.66028866  1
  Li  Li1  1  0.25125120  0.25001827  0.66028839  1
  Li  Li2  1  0.24874123  0.25002389  0.16028521  1
  Li  Li3  1  0.74874278  0.74998819  0.16028406  1
  I  I4  1  0.08362846  0.75095725  0.41091568  1
  I  I5  1  0.58362935  0.24904118  0.41091317  1
  I  I6  1  0.91637731  0.24903738  0.91091585  1
  I  I7  1  0.41637646  0.75095625  0.91091458  1
