# generated using pymatgen
data_NaI
_symmetry_space_group_name_H-M   'P 1'
_cell_length_a   12.61648787
_cell_length_b   12.61736701
_cell_length_c   4.53132195
_cell_angle_alpha   90.00088103
_cell_angle_beta   89.99997624
_cell_angle_gamma   90.01958970
_symmetry_Int_Tables_number   1
_chemical_formula_structural   NaI
_chemical_formula_sum   'Na8 I8'
_cell_volume   721.32686132
_cell_formula_units_Z   8
loop_
 _symmetry_equiv_pos_site_id
 _symmetry_equiv_pos_as_xyz
  1  'x, y, z'
loop_
 _atom_site_type_symbol
 _atom_site_label
 _atom_site_symmetry_multiplicity
 _atom_site_fract_x
 _atom_site_fract_y
 _atom_site_fract_z
 _atom_site_occupancy
  Na  Na0  1  0.16126422  0.50029044  0.90922732  1
  Na  Na1  1  -0.00024685  0.16114267  0.65789051  1
  Na  Na2  1  0.50024714  0.33885601  0.15790748  1
  Na  Na3  1  0.49975315  0.66114266  0.15789043  1
  Na  Na4  1  0.00024713  0.83885603  0.65790745  1
  Na  Na5  1  0.66126420  0.00029045  0.40922716  1
  Na  Na6  1  0.33873593  -0.00029146  0.40922982  1
  Na  Na7  1  0.83873595  0.49970856  0.90922974  1
  I  I8  1  0.50023559  0.82922840  0.64964104  1
  I  I9  1  0.67063375  0.50014986  0.40083013  1
  I  I10  1  0.82936623  -0.00014752  0.90082921  1
  I  I11  1  0.17063374  0.00014986  0.90083021  1
  I  I12  1  0.32936624  0.49985247  0.40082937  1
  I  I13  1  0.00023558  0.32922843  0.14964114  1
  I  I14  1  -0.00023597  0.67077156  0.14964595  1
  I  I15  1  0.49976399  0.17077156  0.64964600  1
