# generated using pymatgen
data_LiBr
_symmetry_space_group_name_H-M   'P 1'
_cell_length_a   11.12247301
_cell_length_b   6.39001988
_cell_length_c   6.34423421
_cell_angle_alpha   90.00008611
_cell_angle_beta   89.99976075
_cell_angle_gamma   90.00094868
_symmetry_Int_Tables_number   1
_chemical_formula_structural   LiBr
_chemical_formula_sum   'Li8 Br8'
_cell_volume   450.90263898
_cell_formula_units_Z   8
loop_
 _symmetry_equiv_pos_site_id
 _symmetry_equiv_pos_as_xyz
  1  'x, y, z'
loop_
 _atom_site_type_symbol
 _atom_site_label
 _atom_site_symmetry_multiplicity
 _atom_site_fract_x
 _atom_site_fract_y
 _atom_site_fract_z
 _atom_site_occupancy
  Li  Li0  1  0.25038158  0.02484954  0.59065542  1
  Li  Li1  1  0.75037942  0.97515127  0.09065726  1
  Li  Li2  1  0.24961865  0.52485092  0.59065372  1
  Li  Li3  1  0.74961975  0.97514922  0.59066121  1
  Li  Li4  1  0.75038024  0.47514946  0.59065848  1
  Li  Li5  1  0.24961940  0.02485087  0.09065323  1
  Li  Li6  1  0.74962112  0.47514916  0.09065923  1
  Li  Li7  1  0.25038006  0.52485238  0.09065537  1
  Br  Br8  1  0.85747582  0.22578070  0.84022411  1
  Br  Br9  1  0.35747576  0.77421340  0.34021755  1
  Br  Br10  1  0.64252408  0.72578359  0.84022378  1
  Br  Br11  1  0.14252408  0.77421805  0.84021718  1
  Br  Br12  1  0.35747602  0.27421566  0.84021815  1
  Br  Br13  1  0.64252407  0.22578642  0.34022308  1
  Br  Br14  1  0.14252370  0.27421612  0.34021804  1
  Br  Br15  1  0.85747626  0.72578326  0.34022473  1
