# generated using pymatgen
data_NaI
_symmetry_space_group_name_H-M   'P 1'
_cell_length_a   7.87959309
_cell_length_b   4.56503651
_cell_length_c   7.74435788
_cell_angle_alpha   89.99995813
_cell_angle_beta   90.00011534
_cell_angle_gamma   90.00000160
_symmetry_Int_Tables_number   1
_chemical_formula_structural   NaI
_chemical_formula_sum   'Na4 I4'
_cell_volume   278.56943278
_cell_formula_units_Z   4
loop_
 _symmetry_equiv_pos_site_id
 _symmetry_equiv_pos_as_xyz
  1  'x, y, z'
loop_
 _atom_site_type_symbol
 _atom_site_label
 _atom_site_symmetry_multiplicity
 _atom_site_fract_x
 _atom_site_fract_y
 _atom_site_fract_z
 _atom_site_occupancy
  Na  Na0  1  0.24966526  0.25335555  0.74342376  1
  Na  Na1  1  0.74966552  0.74664448  0.74342716  1
  Na  Na2  1  0.75033467  0.74664351  0.24343199  1
  Na  Na3  1  0.25033494  0.25335653  0.24342860  1
  I  I4  1  0.91688510  0.24828389  0.99344005  1
  I  I5  1  0.41688501  0.75171608  0.99344010  1
  I  I6  1  0.08311481  0.75171580  0.49344012  1
  I  I7  1  0.58311468  0.24828418  0.49344006  1
