# generated using pymatgen
data_LiBr
_symmetry_space_group_name_H-M   'P 1'
_cell_length_a   6.68848351
_cell_length_b   3.86161198
_cell_length_c   6.42962209
_cell_angle_alpha   89.99999211
_cell_angle_beta   90.00004684
_cell_angle_gamma   89.99999598
_symmetry_Int_Tables_number   1
_chemical_formula_structural   LiBr
_chemical_formula_sum   'Li4 Br4'
_cell_volume   166.06638849
_cell_formula_units_Z   4
loop_
 _symmetry_equiv_pos_site_id
 _symmetry_equiv_pos_as_xyz
  1  'x, y, z'
loop_
 _atom_site_type_symbol
 _atom_site_label
 _atom_site_symmetry_multiplicity
 _atom_site_fract_x
 _atom_site_fract_y
 _atom_site_fract_z
 _atom_site_occupancy
  Li  Li0  1  0.24969217  -0.00087087  0.74894837  1
  Li  Li1  1  0.75030802  0.49913072  0.75105007  1
  Li  Li2  1  0.25030769  0.00087149  0.24894811  1
  Li  Li3  1  0.74969191  0.50086979  0.25105031  1
  Br  Br4  1  0.58271881  -0.00026522  0.50055206  1
  Br  Br5  1  0.41728140  0.49973536  -0.00055044  1
  Br  Br6  1  0.91728117  0.00026419  0.00055205  1
  Br  Br7  1  0.08271882  0.50026454  0.49944948  1
