# generated using pymatgen
data_LiI
_symmetry_space_group_name_H-M   'P 1'
_cell_length_a   4.25036868
_cell_length_b   4.27564691
_cell_length_c   7.19234707
_cell_angle_alpha   89.99895913
_cell_angle_beta   124.60221206
_cell_angle_gamma   90.00027704
_symmetry_Int_Tables_number   1
_chemical_formula_structural   LiI
_chemical_formula_sum   'Li2 I2'
_cell_volume   107.58687567
_cell_formula_units_Z   2
loop_
 _symmetry_equiv_pos_site_id
 _symmetry_equiv_pos_as_xyz
  1  'x, y, z'
loop_
 _atom_site_type_symbol
 _atom_site_label
 _atom_site_symmetry_multiplicity
 _atom_site_fract_x
 _atom_site_fract_y
 _atom_site_fract_z
 _atom_site_occupancy
  Li  Li0  1  0.96209243  0.24708671  0.41638496  1
  Li  Li1  1  0.96209464  0.75291331  0.91638308  1
  I  I2  1  0.46221955  0.74987059  0.41681804  1
  I  I3  1  0.46221970  0.25012939  0.91681746  1
