# generated using pymatgen
data_LiI
_symmetry_space_group_name_H-M   'P 1'
_cell_length_a   8.36241913
_cell_length_b   8.36241439
_cell_length_c   9.30925448
_cell_angle_alpha   90.00010719
_cell_angle_beta   90.00009198
_cell_angle_gamma   90.00008145
_symmetry_Int_Tables_number   1
_chemical_formula_structural   LiI
_chemical_formula_sum   'Li8 I8'
_cell_volume   650.99629649
_cell_formula_units_Z   8
loop_
 _symmetry_equiv_pos_site_id
 _symmetry_equiv_pos_as_xyz
  1  'x, y, z'
loop_
 _atom_site_type_symbol
 _atom_site_label
 _atom_site_symmetry_multiplicity
 _atom_site_fract_x
 _atom_site_fract_y
 _atom_site_fract_z
 _atom_site_occupancy
  Li  Li0  1  0.63890922  0.66025739  0.64144456  1
  Li  Li1  1  0.83974279  0.86109140  0.14144603  1
  Li  Li2  1  0.13890956  0.83974176  0.85855619  1
  Li  Li3  1  0.16025761  0.13890992  0.14144425  1
  Li  Li4  1  0.86109044  0.16025710  0.85855357  1
  Li  Li5  1  0.36109075  0.33974263  0.64144543  1
  Li  Li6  1  0.33974249  0.63890959  0.35855586  1
  Li  Li7  1  0.66025759  0.36109059  0.35855404  1
  I  I8  1  0.66849427  0.69522710  0.34279454  1
  I  I9  1  0.80477298  0.83150527  0.84279475  1
  I  I10  1  0.16849413  0.80477339  0.15720623  1
  I  I11  1  0.19522700  0.16849368  0.84279395  1
  I  I12  1  0.83150595  0.19522723  0.15720503  1
  I  I13  1  0.33150578  0.30477314  0.34279446  1
  I  I14  1  0.30477276  0.66849408  0.65720577  1
  I  I15  1  0.69522668  0.33150573  0.65720535  1
