# generated using pymatgen
data_KS
_symmetry_space_group_name_H-M   'P 1'
_cell_length_a   4.79265227
_cell_length_b   4.78896416
_cell_length_c   10.08469371
_cell_angle_alpha   90.00001166
_cell_angle_beta   118.30055821
_cell_angle_gamma   89.99998551
_symmetry_Int_Tables_number   1
_chemical_formula_structural   KS
_chemical_formula_sum   'K4 S4'
_cell_volume   203.79622295
_cell_formula_units_Z   4
loop_
 _symmetry_equiv_pos_site_id
 _symmetry_equiv_pos_as_xyz
  1  'x, y, z'
loop_
 _atom_site_type_symbol
 _atom_site_label
 _atom_site_symmetry_multiplicity
 _atom_site_fract_x
 _atom_site_fract_y
 _atom_site_fract_z
 _atom_site_occupancy
  K  K0  1  0.00580249  0.24918660  0.25519422  1
  K  K1  1  0.50580249  0.74918660  0.25519423  1
  K  K2  1  0.00580119  0.75081385  0.75519377  1
  K  K3  1  0.50580119  0.25081384  0.75519375  1
  S  S4  1  0.25578648  0.75082613  0.50528004  1
  S  S5  1  0.75578649  0.25082609  0.50528004  1
  S  S6  1  0.25578578  0.24917344  0.00528022  1
  S  S7  1  0.75578578  0.74917344  0.00528022  1
