# generated using pymatgen
data_LiBr
_symmetry_space_group_name_H-M   'P 1'
_cell_length_a   11.89161488
_cell_length_b   11.89162025
_cell_length_c   11.89162010
_cell_angle_alpha   90.00003795
_cell_angle_beta   89.99993773
_cell_angle_gamma   89.99997993
_symmetry_Int_Tables_number   1
_chemical_formula_structural   LiBr
_chemical_formula_sum   'Li24 Br24'
_cell_volume   1681.60075534
_cell_formula_units_Z   24
loop_
 _symmetry_equiv_pos_site_id
 _symmetry_equiv_pos_as_xyz
  1  'x, y, z'
loop_
 _atom_site_type_symbol
 _atom_site_label
 _atom_site_symmetry_multiplicity
 _atom_site_fract_x
 _atom_site_fract_y
 _atom_site_fract_z
 _atom_site_occupancy
  Li  Li0  1  0.72994017  0.07855221  0.61781618  1
  Li  Li1  1  0.72994215  0.92144872  0.38218511  1
  Li  Li2  1  0.88218474  0.77005807  0.57855099  1
  Li  Li3  1  0.61781484  0.27005989  0.92144800  1
  Li  Li4  1  0.07855244  0.38218415  0.27005932  1
  Li  Li5  1  0.61781497  0.72994046  0.07855252  1
  Li  Li6  1  0.38218475  0.72993953  0.92144899  1
  Li  Li7  1  0.38218558  0.27005949  0.07855061  1
  Li  Li8  1  0.92145109  0.61781672  0.27005318  1
  Li  Li9  1  0.07855183  0.61781488  0.72994087  1
  Li  Li10  1  0.92144766  0.38218563  0.72994006  1
  Li  Li11  1  0.27006101  0.07855327  0.38218540  1
  Li  Li12  1  0.27006026  0.92144680  0.61781498  1
  Li  Li13  1  0.11781507  0.22993938  0.57855370  1
  Li  Li14  1  0.88218388  0.22994513  0.42144900  1
  Li  Li15  1  0.11781572  0.77005994  0.42144675  1
  Li  Li16  1  0.57855268  0.88218509  0.77006136  1
  Li  Li17  1  0.42144746  0.11781457  0.77006156  1
  Li  Li18  1  0.57855103  0.11781508  0.22994251  1
  Li  Li19  1  0.42144805  0.88218500  0.22993842  1
  Li  Li20  1  0.77005680  0.57855039  0.88218349  1
  Li  Li21  1  0.77005662  0.42144891  0.11781475  1
  Li  Li22  1  0.22994121  0.57855024  0.11781546  1
  Li  Li23  1  0.22993946  0.42144835  0.88218580  1
  Br  Br24  1  0.58920710  0.30626389  0.13304810  1
  Br  Br25  1  0.58920670  0.69373508  0.86695249  1
  Br  Br26  1  0.36695252  0.91079148  0.80626603  1
  Br  Br27  1  0.13304751  0.41079193  0.69373592  1
  Br  Br28  1  0.30626605  0.86695342  0.41079069  1
  Br  Br29  1  0.13304865  0.58920772  0.30626433  1
  Br  Br30  1  0.86695205  0.58920809  0.69373516  1
  Br  Br31  1  0.86695317  0.41079357  0.30626231  1
  Br  Br32  1  0.69373493  0.13304824  0.41079266  1
  Br  Br33  1  0.30626541  0.13304635  0.58920927  1
  Br  Br34  1  0.69373548  0.86695331  0.58920866  1
  Br  Br35  1  0.41079251  0.30626622  0.86695164  1
  Br  Br36  1  0.41079266  0.69373369  0.13304850  1
  Br  Br37  1  0.63304746  0.08920753  0.80626678  1
  Br  Br38  1  0.36695207  0.08920785  0.19373354  1
  Br  Br39  1  0.63304779  0.91079226  0.19373548  1
  Br  Br40  1  0.80626409  0.36695209  0.91079189  1
  Br  Br41  1  0.19373451  0.63304757  0.91079324  1
  Br  Br42  1  0.80626405  0.63304766  0.08920551  1
  Br  Br43  1  0.19373571  0.36695098  0.08920806  1
  Br  Br44  1  0.91079192  0.80626383  0.36695190  1
  Br  Br45  1  0.91079118  0.19373580  0.63304806  1
  Br  Br46  1  0.08920895  0.80626374  0.63304645  1
  Br  Br47  1  0.08920807  0.19373579  0.36695433  1
