# generated using pymatgen
data_LiBr
_symmetry_space_group_name_H-M   'P 1'
_cell_length_a   3.96362803
_cell_length_b   3.96555733
_cell_length_c   12.90109304
_cell_angle_alpha   89.99983316
_cell_angle_beta   90.00000927
_cell_angle_gamma   89.93099049
_symmetry_Int_Tables_number   1
_chemical_formula_structural   LiBr
_chemical_formula_sum   'Li4 Br4'
_cell_volume   202.77915812
_cell_formula_units_Z   4
loop_
 _symmetry_equiv_pos_site_id
 _symmetry_equiv_pos_as_xyz
  1  'x, y, z'
loop_
 _atom_site_type_symbol
 _atom_site_label
 _atom_site_symmetry_multiplicity
 _atom_site_fract_x
 _atom_site_fract_y
 _atom_site_fract_z
 _atom_site_occupancy
  Li  Li0  1  0.00600867  0.99506330  0.62967802  1
  Li  Li1  1  0.99457347  0.99470809  0.87976764  1
  Li  Li2  1  0.99399779  0.00493698  0.12967264  1
  Li  Li3  1  0.00542238  0.00528886  0.37976928  1
  Br  Br4  1  -0.00288045  0.50500472  0.25472382  1
  Br  Br5  1  0.50515939  0.00295713  0.50466859  1
  Br  Br6  1  0.00288043  0.49499254  0.75472217  1
  Br  Br7  1  0.49483831  -0.00295164  0.00467500  1
