# generated using pymatgen
data_LiI
_symmetry_space_group_name_H-M   'P 1'
_cell_length_a   7.77739460
_cell_length_b   4.76493201
_cell_length_c   9.56093694
_cell_angle_alpha   89.99999588
_cell_angle_beta   126.70854864
_cell_angle_gamma   90.00018037
_symmetry_Int_Tables_number   1
_chemical_formula_structural   LiI
_chemical_formula_sum   'Li4 I4'
_cell_volume   284.05069010
_cell_formula_units_Z   4
loop_
 _symmetry_equiv_pos_site_id
 _symmetry_equiv_pos_as_xyz
  1  'x, y, z'
loop_
 _atom_site_type_symbol
 _atom_site_label
 _atom_site_symmetry_multiplicity
 _atom_site_fract_x
 _atom_site_fract_y
 _atom_site_fract_z
 _atom_site_occupancy
  Li  Li0  1  0.50110975  0.25075372  0.87601116  1
  Li  Li1  1  0.49889114  0.75075609  0.62398968  1
  Li  Li2  1  0.49889015  0.74924628  0.12398883  1
  Li  Li3  1  0.50110886  0.24924399  0.37601032  1
  I  I4  1  0.26989912  0.74866570  0.26253596  1
  I  I5  1  0.73010102  0.24866453  0.23746392  1
  I  I6  1  0.73010099  0.25133427  0.73746411  1
  I  I7  1  0.26989896  0.75133540  0.76253603  1
