# generated using pymatgen
data_LiBr
_symmetry_space_group_name_H-M   'P 1'
_cell_length_a   10.89994502
_cell_length_b   10.89993847
_cell_length_c   10.89993777
_cell_angle_alpha   89.99998613
_cell_angle_beta   89.99999087
_cell_angle_gamma   89.99999841
_symmetry_Int_Tables_number   1
_chemical_formula_structural   LiBr
_chemical_formula_sum   'Li24 Br24'
_cell_volume   1295.00776468
_cell_formula_units_Z   24
loop_
 _symmetry_equiv_pos_site_id
 _symmetry_equiv_pos_as_xyz
  1  'x, y, z'
loop_
 _atom_site_type_symbol
 _atom_site_label
 _atom_site_symmetry_multiplicity
 _atom_site_fract_x
 _atom_site_fract_y
 _atom_site_fract_z
 _atom_site_occupancy
  Li  Li0  1  0.87287536  0.40287601  0.12729504  1
  Li  Li1  1  0.90287696  0.62712322  0.37270474  1
  Li  Li2  1  0.12712440  0.40287627  0.87270503  1
  Li  Li3  1  0.37270466  0.09712288  0.37287684  1
  Li  Li4  1  0.59712264  0.87270468  0.87287677  1
  Li  Li5  1  0.62729531  0.90287705  0.37287719  1
  Li  Li6  1  0.40287742  0.87270461  0.12712305  1
  Li  Li7  1  0.59712263  0.12729535  0.12712254  1
  Li  Li8  1  0.37270468  0.90287712  0.62712329  1
  Li  Li9  1  0.40287736  0.12729528  0.87287734  1
  Li  Li10  1  0.62729527  0.09712322  0.62712294  1
  Li  Li11  1  0.12712398  0.59712371  0.12729457  1
  Li  Li12  1  0.09712292  0.37287682  0.37270478  1
  Li  Li13  1  0.90287736  0.37287677  0.62729567  1
  Li  Li14  1  0.87287538  0.59712389  0.87270504  1
  Li  Li15  1  0.09712276  0.62712300  0.62729502  1
  Li  Li16  1  0.12729512  0.12712320  0.59712336  1
  Li  Li17  1  0.12729495  0.87287610  0.40287645  1
  Li  Li18  1  0.37287663  0.37270492  0.09712298  1
  Li  Li19  1  0.87270504  0.12712373  0.40287609  1
  Li  Li20  1  0.62712395  0.62729523  0.09712350  1
  Li  Li21  1  0.87270518  0.87287540  0.59712443  1
  Li  Li22  1  0.37287670  0.62729537  0.90287723  1
  Li  Li23  1  0.62712361  0.37270480  0.90287652  1
  Br  Br24  1  0.37627231  0.62356832  0.13241990  1
  Br  Br25  1  0.12356849  0.12372786  0.36758025  1
  Br  Br26  1  0.62372771  0.62356860  0.86758032  1
  Br  Br27  1  0.36758026  0.87643162  0.87627238  1
  Br  Br28  1  0.37643151  0.86758026  0.37627245  1
  Br  Br29  1  0.63241977  0.12356822  0.87627213  1
  Br  Br30  1  0.62356820  0.86758023  0.62372743  1
  Br  Br31  1  0.37643170  0.13241988  0.62372793  1
  Br  Br32  1  0.36758030  0.12356845  0.12372748  1
  Br  Br33  1  0.62356821  0.13241992  0.37627207  1
  Br  Br34  1  0.63241969  0.87643159  0.12372806  1
  Br  Br35  1  0.62372773  0.37643172  0.13241953  1
  Br  Br36  1  0.87643181  0.87627240  0.36758047  1
  Br  Br37  1  0.12356824  0.87627237  0.63241985  1
  Br  Br38  1  0.37627253  0.37643191  0.86758014  1
  Br  Br39  1  0.87643157  0.12372777  0.63241945  1
  Br  Br40  1  0.13241966  0.62372773  0.37643164  1
  Br  Br41  1  0.13241983  0.37627222  0.62356850  1
  Br  Br42  1  0.87627216  0.36758050  0.87643166  1
  Br  Br43  1  0.86758011  0.62372776  0.62356814  1
  Br  Br44  1  0.12372774  0.63241961  0.87643150  1
  Br  Br45  1  0.86758017  0.37627235  0.37643171  1
  Br  Br46  1  0.87627225  0.63241963  0.12356846  1
  Br  Br47  1  0.12372774  0.36758044  0.12356811  1
