# generated using pymatgen
data_LiBr
_symmetry_space_group_name_H-M   'P 1'
_cell_length_a   7.24509164
_cell_length_b   7.24481905
_cell_length_c   3.86570938
_cell_angle_alpha   90.00003010
_cell_angle_beta   89.99998228
_cell_angle_gamma   90.00151592
_symmetry_Int_Tables_number   1
_chemical_formula_structural   LiBr
_chemical_formula_sum   'Li4 Br4'
_cell_volume   202.90868052
_cell_formula_units_Z   4
loop_
 _symmetry_equiv_pos_site_id
 _symmetry_equiv_pos_as_xyz
  1  'x, y, z'
loop_
 _atom_site_type_symbol
 _atom_site_label
 _atom_site_symmetry_multiplicity
 _atom_site_fract_x
 _atom_site_fract_y
 _atom_site_fract_z
 _atom_site_occupancy
  Li  Li0  1  0.16220417  0.33801703  0.59108522  1
  Li  Li1  1  0.33809441  0.83777522  0.84092354  1
  Li  Li2  1  0.83779596  0.66198313  0.09108322  1
  Li  Li3  1  0.66190562  0.16222476  0.34092388  1
  Br  Br4  1  0.82927782  0.32906720  0.84152657  1
  Br  Br5  1  0.32903729  0.17068037  0.09149305  1
  Br  Br6  1  0.17072202  0.67093274  0.34152664  1
  Br  Br7  1  0.67096271  0.82931955  0.59149152  1
