# generated using pymatgen
data_LiBr
_symmetry_space_group_name_H-M   'P 1'
_cell_length_a   7.69770692
_cell_length_b   6.90021565
_cell_length_c   4.34129098
_cell_angle_alpha   89.99995715
_cell_angle_beta   89.99999125
_cell_angle_gamma   89.99993930
_symmetry_Int_Tables_number   1
_chemical_formula_structural   LiBr
_chemical_formula_sum   'Li4 Br4'
_cell_volume   230.59130743
_cell_formula_units_Z   4
loop_
 _symmetry_equiv_pos_site_id
 _symmetry_equiv_pos_as_xyz
  1  'x, y, z'
loop_
 _atom_site_type_symbol
 _atom_site_label
 _atom_site_symmetry_multiplicity
 _atom_site_fract_x
 _atom_site_fract_y
 _atom_site_fract_z
 _atom_site_occupancy
  Li  Li0  1  0.35342175  -0.08721425  0.97063386  1
  Li  Li1  1  0.85342222  0.58721349  0.97063073  1
  Li  Li2  1  0.64657736  0.08721482  0.47063165  1
  Li  Li3  1  0.14657887  0.41278563  0.47063190  1
  Br  Br4  1  0.68884088  0.90094119  0.96993995  1
  Br  Br5  1  0.18884070  0.59905926  0.96994208  1
  Br  Br6  1  0.31115911  0.09905900  0.46993953  1
  Br  Br7  1  0.81115911  0.40094085  0.46994338  1
