# generated using pymatgen
data_LiI
_symmetry_space_group_name_H-M   'P 1'
_cell_length_a   12.62033692
_cell_length_b   12.62033775
_cell_length_c   8.63585676
_cell_angle_alpha   90.00094232
_cell_angle_beta   89.99901750
_cell_angle_gamma   120.00179250
_symmetry_Int_Tables_number   1
_chemical_formula_structural   LiI
_chemical_formula_sum   'Li18 I18'
_cell_volume   1191.16011764
_cell_formula_units_Z   18
loop_
 _symmetry_equiv_pos_site_id
 _symmetry_equiv_pos_as_xyz
  1  'x, y, z'
loop_
 _atom_site_type_symbol
 _atom_site_label
 _atom_site_symmetry_multiplicity
 _atom_site_fract_x
 _atom_site_fract_y
 _atom_site_fract_z
 _atom_site_occupancy
  Li  Li0  1  0.53887147  0.07218064  0.21366430  1
  Li  Li1  1  0.53887863  0.46670012  0.71367424  1
  Li  Li2  1  0.26115296  0.12779363  0.38033066  1
  Li  Li3  1  0.86662839  0.73884228  0.38033137  1
  Li  Li4  1  0.59449201  0.80004076  0.54699684  1
  Li  Li5  1  0.92782572  0.46670372  0.21366445  1
  Li  Li6  1  0.86663379  0.12778836  0.88034209  1
  Li  Li7  1  0.26116237  0.13337389  0.88033118  1
  Li  Li8  1  0.53330147  0.46111888  0.21367528  1
  Li  Li9  1  0.53329279  0.07217173  0.71366654  1
  Li  Li10  1  0.87220578  0.73884881  0.88032991  1
  Li  Li11  1  0.87221424  0.13336628  0.38034188  1
  Li  Li12  1  0.19996572  0.79445225  0.54700825  1
  Li  Li13  1  0.19996137  0.40550749  0.04699792  1
  Li  Li14  1  0.92781841  0.46112810  0.71366457  1
  Li  Li15  1  0.59448247  0.79445990  0.04699779  1
  Li  Li16  1  0.20554098  0.40551429  0.54699747  1
  Li  Li17  1  0.20554531  0.80003257  0.04700801  1
  I  I18  1  0.12220318  0.88230615  0.80740565  1
  I  I19  1  0.12220000  0.23989249  0.30739150  1
  I  I20  1  0.45102861  0.54446393  0.97406952  1
  I  I21  1  0.09344107  0.54897051  0.97405938  1
  I  I22  1  0.78436145  0.57322481  0.14072451  1
  I  I23  1  0.11769413  0.23989126  0.80739175  1
  I  I24  1  0.09344026  0.54446585  0.47405972  1
  I  I25  1  0.45102837  0.90655849  0.47405913  1
  I  I26  1  0.76010742  0.87780109  0.80739195  1
  I  I27  1  0.76011012  0.88230536  0.30739042  1
  I  I28  1  0.45553800  0.54897318  0.47407216  1
  I  I29  1  0.45553288  0.90655871  0.97406000  1
  I  I30  1  0.42677402  0.21113435  0.14072583  1
  I  I31  1  0.42677498  0.21563866  0.64072553  1
  I  I32  1  0.11769336  0.87779577  0.30740554  1
  I  I33  1  0.78436091  0.21112902  0.64073748  1
  I  I34  1  0.78887024  0.21563932  0.14073751  1
  I  I35  1  0.78886713  0.57322735  0.64072699  1
