# generated using pymatgen
data_LiBr
_symmetry_space_group_name_H-M   'P 1'
_cell_length_a   8.32581155
_cell_length_b   8.32581883
_cell_length_c   7.17573345
_cell_angle_alpha   90.00006319
_cell_angle_beta   90.00000364
_cell_angle_gamma   90.00001960
_symmetry_Int_Tables_number   1
_chemical_formula_structural   LiBr
_chemical_formula_sum   'Li8 Br8'
_cell_volume   497.41609198
_cell_formula_units_Z   8
loop_
 _symmetry_equiv_pos_site_id
 _symmetry_equiv_pos_as_xyz
  1  'x, y, z'
loop_
 _atom_site_type_symbol
 _atom_site_label
 _atom_site_symmetry_multiplicity
 _atom_site_fract_x
 _atom_site_fract_y
 _atom_site_fract_z
 _atom_site_occupancy
  Li  Li0  1  0.14666474  0.14494233  0.16016045  1
  Li  Li1  1  0.64494405  0.35333604  0.33984026  1
  Li  Li2  1  0.85333651  0.85505768  0.16016202  1
  Li  Li3  1  0.85505627  0.14666487  0.83983891  1
  Li  Li4  1  0.14494212  0.85333629  0.83983854  1
  Li  Li5  1  0.35333642  0.35505710  0.66016073  1
  Li  Li6  1  0.35505746  0.64666376  0.33983776  1
  Li  Li7  1  0.64666332  0.64494234  0.66016174  1
  Br  Br8  1  0.33866054  0.33930897  0.30279314  1
  Br  Br9  1  0.83930926  0.16133994  0.19720612  1
  Br  Br10  1  0.66134046  0.66069137  0.30279546  1
  Br  Br11  1  0.66069050  0.33866010  0.69720649  1
  Br  Br12  1  0.33930782  0.66133952  0.69720505  1
  Br  Br13  1  0.16133999  0.16069103  0.80279421  1
  Br  Br14  1  0.16069139  0.83865994  0.19720509  1
  Br  Br15  1  0.83865917  0.83930873  0.80279404  1
