# generated using pymatgen
data_KI
_symmetry_space_group_name_H-M   'P 1'
_cell_length_a   15.55011101
_cell_length_b   15.55010994
_cell_length_c   10.44663708
_cell_angle_alpha   90.00241817
_cell_angle_beta   89.99760664
_cell_angle_gamma   120.00239359
_symmetry_Int_Tables_number   1
_chemical_formula_structural   KI
_chemical_formula_sum   'K18 I18'
_cell_volume   2187.57837007
_cell_formula_units_Z   18
loop_
 _symmetry_equiv_pos_site_id
 _symmetry_equiv_pos_as_xyz
  1  'x, y, z'
loop_
 _atom_site_type_symbol
 _atom_site_label
 _atom_site_symmetry_multiplicity
 _atom_site_fract_x
 _atom_site_fract_y
 _atom_site_fract_z
 _atom_site_occupancy
  K  K0  1  0.20611965  0.41427660  0.19434036  1
  K  K1  1  0.20612074  0.79184768  0.69433141  1
  K  K2  1  0.91908522  0.46057170  0.36093745  1
  K  K3  1  0.54148277  0.08091495  0.36093695  1
  K  K4  1  0.25243325  0.12518275  0.52758931  1
  K  K5  1  0.58572392  0.79184783  0.19433860  1
  K  K6  1  0.54148308  0.46057019  0.86093022  1
  K  K7  1  0.91908501  0.45851722  0.86093691  1
  K  K8  1  0.20815237  0.79387928  0.19433134  1
  K  K9  1  0.20815215  0.41427603  0.69433873  1
  K  K10  1  0.53942833  0.08091482  0.86093755  1
  K  K11  1  0.53942981  0.45851697  0.36093019  1
  K  K12  1  0.87481716  0.12725410  0.52758339  1
  K  K13  1  0.87481727  0.74756679  0.02758933  1
  K  K14  1  0.58572345  0.79388038  0.69434037  1
  K  K15  1  0.25243341  0.12725513  0.02759127  1
  K  K16  1  0.87274487  0.74756655  0.52759139  1
  K  K17  1  0.87274593  0.12518287  0.02758334  1
  I  I18  1  0.75526162  0.87688462  0.94493483  1
  I  I19  1  0.75526011  0.87837068  0.44493545  1
  I  I20  1  0.45642691  0.91137697  0.11157931  1
  I  I21  1  0.45495407  0.54357513  0.11158300  1
  I  I22  1  0.78973188  0.21169538  0.27825349  1
  I  I23  1  0.12311339  0.87837311  0.94493926  1
  I  I24  1  0.45495596  0.91137737  0.61157892  1
  I  I25  1  0.45642483  0.54504589  0.61158307  1
  I  I26  1  0.12162926  0.24473982  0.94493533  1
  I  I27  1  0.12162689  0.87688656  0.44493927  1
  I  I28  1  0.08862305  0.54357310  0.61157936  1
  I  I29  1  0.08862262  0.54504403  0.11157897  1
  I  I30  1  0.78830702  0.57803543  0.27824863  1
  I  I31  1  0.78830460  0.21026809  0.77825353  1
  I  I32  1  0.12311541  0.24473843  0.44493479  1
  I  I33  1  0.78973317  0.57803377  0.77824851  1
  I  I34  1  0.42196625  0.21026684  0.27824846  1
  I  I35  1  0.42196454  0.21169295  0.77824881  1
