# generated using pymatgen
data_LiBr
_symmetry_space_group_name_H-M   'P 1'
_cell_length_a   5.45458550
_cell_length_b   5.53236617
_cell_length_c   12.18409643
_cell_angle_alpha   90.00025809
_cell_angle_beta   153.06040418
_cell_angle_gamma   89.99977032
_symmetry_Int_Tables_number   1
_chemical_formula_structural   LiBr
_chemical_formula_sum   'Li4 Br4'
_cell_volume   166.57621794
_cell_formula_units_Z   4
loop_
 _symmetry_equiv_pos_site_id
 _symmetry_equiv_pos_as_xyz
  1  'x, y, z'
loop_
 _atom_site_type_symbol
 _atom_site_label
 _atom_site_symmetry_multiplicity
 _atom_site_fract_x
 _atom_site_fract_y
 _atom_site_fract_z
 _atom_site_occupancy
  Li  Li0  1  0.24762337  0.19398426  0.24977579  1
  Li  Li1  1  0.74763011  0.69398370  0.24977585  1
  Li  Li2  1  0.75237885  0.19398510  0.75022489  1
  Li  Li3  1  0.25236968  0.69398246  0.75022393  1
  Br  Br4  1  0.25016177  0.19415095  0.74984438  1
  Br  Br5  1  0.75016085  0.69415147  0.74984444  1
  Br  Br6  1  0.74983807  0.19415156  0.25015565  1
  Br  Br7  1  0.24983730  0.69415126  0.25015508  1
