# generated using pymatgen
data_LiI
_symmetry_space_group_name_H-M   'P 1'
_cell_length_a   11.22097896
_cell_length_b   11.22248647
_cell_length_c   10.63882386
_cell_angle_alpha   90.03511199
_cell_angle_beta   89.89069090
_cell_angle_gamma   120.06423811
_symmetry_Int_Tables_number   1
_chemical_formula_structural   LiI
_chemical_formula_sum   'Li18 I18'
_cell_volume   1159.47604136
_cell_formula_units_Z   18
loop_
 _symmetry_equiv_pos_site_id
 _symmetry_equiv_pos_as_xyz
  1  'x, y, z'
loop_
 _atom_site_type_symbol
 _atom_site_label
 _atom_site_symmetry_multiplicity
 _atom_site_fract_x
 _atom_site_fract_y
 _atom_site_fract_z
 _atom_site_occupancy
  Li  Li0  1  0.21646152  0.93970386  0.68184753  1
  Li  Li1  1  0.94408427  0.54944672  0.65205760  1
  Li  Li2  1  0.78353868  0.06029870  0.31815386  1
  Li  Li3  1  0.72283118  0.78381968  0.68122087  1
  Li  Li4  1  0.60621304  0.05654486  0.65169090  1
  Li  Li5  1  0.93987455  0.72352538  0.31835263  1
  Li  Li6  1  0.72680847  0.61001142  0.01501392  1
  Li  Li7  1  0.06012527  0.27647412  0.68164732  1
  Li  Li8  1  0.27716749  0.21618031  0.31877784  1
  Li  Li9  1  0.27319237  0.38998897  -0.01501389  1
  Li  Li10  1  0.39378626  0.94345467  0.34830915  1
  Li  Li11  1  0.38927714  0.11706814  0.01449930  1
  Li  Li12  1  0.61072361  0.88293116  -0.01449874  1
  Li  Li13  1  0.05591654  0.45055395  0.34794341  1
  Li  Li14  1  0.88327598  0.27303180  0.01521416  1
  Li  Li15  1  0.11672358  0.72696760  -0.01521413  1
  Li  Li16  1  0.45025972  0.39393764  0.65140029  1
  Li  Li17  1  0.54974076  0.60606198  0.34859866  1
  I  I18  1  0.57467279  0.85845747  0.48103305  1
  I  I19  1  0.38306828  0.90855044  0.85241739  1
  I  I20  1  0.42532780  0.14154319  0.51896683  1
  I  I21  1  0.28354019  0.42479665  0.48091590  1
  I  I22  1  0.52496741  0.61735042  0.85279414  1
  I  I23  1  0.85825810  0.28394205  0.51945960  1
  I  I24  1  0.80833318  0.04938444  0.81384004  1
  I  I25  1  0.14174171  0.71605851  0.48054080  1
  I  I26  1  0.71646032  0.57520386  0.51908380  1
  I  I27  1  0.19166665  0.95061533  0.18615963  1
  I  I28  1  0.47503278  0.38264897  0.14720526  1
  I  I29  1  0.95020008  0.75802878  0.81417809  1
  I  I30  1  0.04979929  0.24197057  0.18582239  1
  I  I31  1  0.61693178  0.09144950  0.14758249  1
  I  I32  1  0.24141673  0.19188269  0.81426809  1
  I  I33  1  0.75858222  0.80811659  0.18573142  1
  I  I34  1  0.09205005  0.47482478  0.85232834  1
  I  I35  1  0.90795018  0.52517483  0.14767207  1
