# generated using pymatgen
data_LiBr
_symmetry_space_group_name_H-M   'P 1'
_cell_length_a   13.82625078
_cell_length_b   13.82625766
_cell_length_c   13.82617643
_cell_angle_alpha   89.99962420
_cell_angle_beta   90.00097006
_cell_angle_gamma   89.99988195
_symmetry_Int_Tables_number   1
_chemical_formula_structural   LiBr
_chemical_formula_sum   'Li48 Br48'
_cell_volume   2643.08524491
_cell_formula_units_Z   48
loop_
 _symmetry_equiv_pos_site_id
 _symmetry_equiv_pos_as_xyz
  1  'x, y, z'
loop_
 _atom_site_type_symbol
 _atom_site_label
 _atom_site_symmetry_multiplicity
 _atom_site_fract_x
 _atom_site_fract_y
 _atom_site_fract_z
 _atom_site_occupancy
  Li  Li0  1  0.04754088  0.15623125  0.33720895  1
  Li  Li1  1  0.16278440  0.54754472  0.15622314  1
  Li  Li2  1  0.83720979  0.95244857  0.15622891  1
  Li  Li3  1  0.16279543  0.45245470  0.34375180  1
  Li  Li4  1  0.83720325  0.04754795  0.34375682  1
  Li  Li5  1  0.15623447  0.16279355  0.54754711  1
  Li  Li6  1  0.84376447  0.33720208  0.54754529  1
  Li  Li7  1  0.04754475  0.84375895  0.16279462  1
  Li  Li8  1  0.54754589  0.65623047  0.83721200  1
  Li  Li9  1  0.66279286  0.04753970  0.65623997  1
  Li  Li10  1  0.66278438  0.45245708  0.15623887  1
  Li  Li11  1  0.34376919  0.33721605  0.95245677  1
  Li  Li12  1  0.66279448  0.54754896  0.34376465  1
  Li  Li13  1  0.33720689  0.04754682  0.15623389  1
  Li  Li14  1  0.33720706  0.95245924  0.34375917  1
  Li  Li15  1  0.65624393  0.16279109  0.95245476  1
  Li  Li16  1  0.34377628  0.66279617  0.54755087  1
  Li  Li17  1  0.84376532  0.16279153  0.04754169  1
  Li  Li18  1  0.15624820  0.33720248  0.04755198  1
  Li  Li19  1  0.45245536  0.84375676  0.83720245  1
  Li  Li20  1  0.95245140  0.84376610  0.66279699  1
  Li  Li21  1  0.15623709  0.83721024  0.95245350  1
  Li  Li22  1  0.84376764  0.66278767  0.95244801  1
  Li  Li23  1  0.54753981  0.15623585  0.16279125  1
  Li  Li24  1  0.54754168  0.84375383  0.33720873  1
  Li  Li25  1  0.45245221  0.65623039  0.33720923  1
  Li  Li26  1  0.65623659  0.83720900  0.54755559  1
  Li  Li27  1  0.95246146  0.34375794  0.33721174  1
  Li  Li28  1  0.95245152  0.65624776  0.16279418  1
  Li  Li29  1  0.33720938  0.45245366  0.65623703  1
  Li  Li30  1  0.66278779  0.95245521  0.84376087  1
  Li  Li31  1  0.33720325  0.54755565  0.84374930  1
  Li  Li32  1  0.65624362  0.66280029  0.04755333  1
  Li  Li33  1  0.34376166  0.83720864  0.04754541  1
  Li  Li34  1  0.65623822  0.33720213  0.45246308  1
  Li  Li35  1  0.34375193  0.16279259  0.45245753  1
  Li  Li36  1  0.45245392  0.15623736  0.66279387  1
  Li  Li37  1  0.54755289  0.34376366  0.66279586  1
  Li  Li38  1  0.04754853  0.65624384  0.66279095  1
  Li  Li39  1  0.04754879  0.34376619  0.83721398  1
  Li  Li40  1  0.95245128  0.15622781  0.83720333  1
  Li  Li41  1  0.45244914  0.34376413  0.16279808  1
  Li  Li42  1  0.83720653  0.45245438  0.84374882  1
  Li  Li43  1  0.16279529  0.04754977  0.84375442  1
  Li  Li44  1  0.83720896  0.54754290  0.65623600  1
  Li  Li45  1  0.16279438  0.95245351  0.65623495  1
  Li  Li46  1  0.84376638  0.83721260  0.45244990  1
  Li  Li47  1  0.15624435  0.66278951  0.45245262  1
  Br  Br48  1  0.68776962  0.44071953  0.61346151  1
  Br  Br49  1  0.88654952  0.18776206  0.44071377  1
  Br  Br50  1  0.11345482  0.31223687  0.44070904  1
  Br  Br51  1  0.88654211  0.81222743  0.05928118  1
  Br  Br52  1  0.11344684  0.68777069  0.05928413  1
  Br  Br53  1  0.44072351  0.88654668  0.18776119  1
  Br  Br54  1  0.55928661  0.61345870  0.18776778  1
  Br  Br55  1  0.68776690  0.55927989  0.88655238  1
  Br  Br56  1  0.18776076  0.94072321  0.11345308  1
  Br  Br57  1  0.38653652  0.68775831  0.94072491  1
  Br  Br58  1  0.38654440  0.81223028  0.44070867  1
  Br  Br59  1  0.05929603  0.61345463  0.31223422  1
  Br  Br60  1  0.38653227  0.18777215  0.05927985  1
  Br  Br61  1  0.61344871  0.68776211  0.44072468  1
  Br  Br62  1  0.61345369  0.31223614  0.05928105  1
  Br  Br63  1  0.94071316  0.88653609  0.31222897  1
  Br  Br64  1  0.05927888  0.38654272  0.18775380  1
  Br  Br65  1  0.55928000  0.88654884  0.68776383  1
  Br  Br66  1  0.44072138  0.61345587  0.68776684  1
  Br  Br67  1  0.81223771  0.55928034  0.11346695  1
  Br  Br68  1  0.31224378  0.55926658  0.38655222  1
  Br  Br69  1  0.44071706  0.11346867  0.31223375  1
  Br  Br70  1  0.55928562  0.38655486  0.31224016  1
  Br  Br71  1  0.18776889  0.44070671  0.88655438  1
  Br  Br72  1  0.18776845  0.55928681  0.61347714  1
  Br  Br73  1  0.81223820  0.94072419  0.61345725  1
  Br  Br74  1  0.94072287  0.11345622  0.18775603  1
  Br  Br75  1  0.31223000  0.05928810  0.61346062  1
  Br  Br76  1  0.31223818  0.94071497  0.88654650  1
  Br  Br77  1  0.61345206  0.81223479  0.94071787  1
  Br  Br78  1  0.38654097  0.31223954  0.55927250  1
  Br  Br79  1  0.61346370  0.18776370  0.55927894  1
  Br  Br80  1  0.94072153  0.38654733  0.68776304  1
  Br  Br81  1  0.05927581  0.11345490  0.68776427  1
  Br  Br82  1  0.94071483  0.61345198  0.81222879  1
  Br  Br83  1  0.05928192  0.88654282  0.81223372  1
  Br  Br84  1  0.81223940  0.44071732  0.38654548  1
  Br  Br85  1  0.18776264  0.05927353  0.38654851  1
  Br  Br86  1  0.68775847  0.94071627  0.38653945  1
  Br  Br87  1  0.68776682  0.05929067  0.11345782  1
  Br  Br88  1  0.31223313  0.44071830  0.11346284  1
  Br  Br89  1  0.81223513  0.05927823  0.88655408  1
  Br  Br90  1  0.11345257  0.81223543  0.55927449  1
  Br  Br91  1  0.88654184  0.68776611  0.55927723  1
  Br  Br92  1  0.11344978  0.18776078  0.94072064  1
  Br  Br93  1  0.88653251  0.31223581  0.94071448  1
  Br  Br94  1  0.55928148  0.11346150  0.81224233  1
  Br  Br95  1  0.44071595  0.38655060  0.81223534  1
