# generated using pymatgen
data_NaI
_symmetry_space_group_name_H-M   'P 1'
_cell_length_a   12.17240558
_cell_length_b   12.17221651
_cell_length_c   4.80072037
_cell_angle_alpha   89.99992431
_cell_angle_beta   89.99990211
_cell_angle_gamma   120.12081332
_symmetry_Int_Tables_number   1
_chemical_formula_structural   NaI
_chemical_formula_sum   'Na6 I6'
_cell_volume   615.25213423
_cell_formula_units_Z   6
loop_
 _symmetry_equiv_pos_site_id
 _symmetry_equiv_pos_as_xyz
  1  'x, y, z'
loop_
 _atom_site_type_symbol
 _atom_site_label
 _atom_site_symmetry_multiplicity
 _atom_site_fract_x
 _atom_site_fract_y
 _atom_site_fract_z
 _atom_site_occupancy
  Na  Na0  1  0.68984749  0.14200326  0.48358494  1
  Na  Na1  1  0.54808546  0.68989158  0.15034589  1
  Na  Na2  1  0.45191431  0.31010791  0.15034981  1
  Na  Na3  1  0.14216898  0.45209225  0.81651294  1
  Na  Na4  1  0.85783119  0.54790805  0.81651980  1
  Na  Na5  1  0.31015244  0.85799755  0.48357974  1
  I  I6  1  0.85587577  0.29380806  0.97345944  1
  I  I7  1  0.56221318  0.85585350  0.64013001  1
  I  I8  1  0.43778651  0.14414706  0.64013487  1
  I  I9  1  0.29341315  0.43722906  0.30634694  1
  I  I10  1  0.70658599  0.56277034  0.30635549  1
  I  I11  1  0.14412553  0.70619137  0.97345617  1
