# generated using pymatgen
data_NaI
_symmetry_space_group_name_H-M   'P 1'
_cell_length_a   9.23771700
_cell_length_b   9.23763808
_cell_length_c   6.52567818
_cell_angle_alpha   90.00001868
_cell_angle_beta   90.00002272
_cell_angle_gamma   90.00000362
_symmetry_Int_Tables_number   1
_chemical_formula_structural   NaI
_chemical_formula_sum   'Na8 I8'
_cell_volume   556.86670034
_cell_formula_units_Z   8
loop_
 _symmetry_equiv_pos_site_id
 _symmetry_equiv_pos_as_xyz
  1  'x, y, z'
loop_
 _atom_site_type_symbol
 _atom_site_label
 _atom_site_symmetry_multiplicity
 _atom_site_fract_x
 _atom_site_fract_y
 _atom_site_fract_z
 _atom_site_occupancy
  Na  Na0  1  0.74893626  0.49953637  0.74875197  1
  Na  Na1  1  0.00046442  0.75106480  0.24875053  1
  Na  Na2  1  0.24893611  0.00046409  0.75125519  1
  Na  Na3  1  -0.00046384  0.24893452  0.24875270  1
  Na  Na4  1  0.75106322  -0.00046357  0.75124335  1
  Na  Na5  1  0.25106341  0.50046432  0.74874993  1
  Na  Na6  1  0.50046439  0.74893462  0.25125415  1
  Na  Na7  1  0.49953598  0.25106478  0.25124205  1
  I  I8  1  0.25046583  0.00001547  0.25108602  1
  I  I9  1  0.49998401  0.24953570  0.75107612  1
  I  I10  1  0.75046594  0.49998395  0.24891778  1
  I  I11  1  0.50001561  0.75046475  0.75108546  1
  I  I12  1  0.24953454  0.50001557  0.24891966  1
  I  I13  1  0.74953448  -0.00001595  0.25107687  1
  I  I14  1  -0.00001593  0.25046488  0.74891820  1
  I  I15  1  0.00001556  0.74953571  0.74892001  1
