# generated using pymatgen
data_LiBr
_symmetry_space_group_name_H-M   'P 1'
_cell_length_a   3.76005894
_cell_length_b   7.16713137
_cell_length_c   7.10257755
_cell_angle_alpha   89.99997907
_cell_angle_beta   90.00002402
_cell_angle_gamma   89.99965546
_symmetry_Int_Tables_number   1
_chemical_formula_structural   LiBr
_chemical_formula_sum   'Li4 Br4'
_cell_volume   191.40620056
_cell_formula_units_Z   4
loop_
 _symmetry_equiv_pos_site_id
 _symmetry_equiv_pos_as_xyz
  1  'x, y, z'
loop_
 _atom_site_type_symbol
 _atom_site_label
 _atom_site_symmetry_multiplicity
 _atom_site_fract_x
 _atom_site_fract_y
 _atom_site_fract_z
 _atom_site_occupancy
  Li  Li0  1  0.25013900  0.43833089  0.39606519  1
  Li  Li1  1  0.74986160  -0.06166958  0.10393436  1
  Li  Li2  1  0.24986034  0.56166942  0.89606590  1
  Li  Li3  1  0.75013916  0.06166954  0.60393356  1
  Br  Br4  1  0.25182535  0.91855563  0.82907941  1
  Br  Br5  1  0.74817495  0.41855567  0.67092112  1
  Br  Br6  1  0.24817470  0.08144421  0.32907917  1
  Br  Br7  1  0.75182491  0.58144423  0.17092129  1
