# generated using pymatgen
data_LiI
_symmetry_space_group_name_H-M   'P 1'
_cell_length_a   14.00487609
_cell_length_b   6.74173800
_cell_length_c   6.79617209
_cell_angle_alpha   90.00389185
_cell_angle_beta   90.00626732
_cell_angle_gamma   90.00562422
_symmetry_Int_Tables_number   1
_chemical_formula_structural   LiI
_chemical_formula_sum   'Li8 I8'
_cell_volume   641.67556675
_cell_formula_units_Z   8
loop_
 _symmetry_equiv_pos_site_id
 _symmetry_equiv_pos_as_xyz
  1  'x, y, z'
loop_
 _atom_site_type_symbol
 _atom_site_label
 _atom_site_symmetry_multiplicity
 _atom_site_fract_x
 _atom_site_fract_y
 _atom_site_fract_z
 _atom_site_occupancy
  Li  Li0  1  0.74986625  0.50012083  0.40717253  1
  Li  Li1  1  0.75013411  0.00009564  0.40715633  1
  Li  Li2  1  0.24985792  -0.00011319  0.90715850  1
  Li  Li3  1  0.25013006  0.50005412  0.40715967  1
  Li  Li4  1  0.74985872  0.49992653  0.90715716  1
  Li  Li5  1  0.24986790  0.00007802  0.40717646  1
  Li  Li6  1  0.25014419  0.49990000  0.90717379  1
  Li  Li7  1  0.75013990  -0.00005918  0.90717300  1
  I  I8  1  0.85054966  0.25018840  0.15708264  1
  I  I9  1  0.64944903  0.75021254  0.15709539  1
  I  I10  1  0.35055079  0.24978770  0.65708677  1
  I  I11  1  0.14944957  0.25017046  0.15709648  1
  I  I12  1  0.85055046  0.74982865  0.65708690  1
  I  I13  1  0.35055083  0.75014599  0.15708691  1
  I  I14  1  0.14945103  0.74981131  0.65709783  1
  I  I15  1  0.64944958  0.24985222  0.65709255  1
