# generated using pymatgen
data_LiBr
_symmetry_space_group_name_H-M   'P 1'
_cell_length_a   3.89292735
_cell_length_b   3.89316103
_cell_length_c   9.53718373
_cell_angle_alpha   90.00109390
_cell_angle_beta   90.00461747
_cell_angle_gamma   120.00338346
_symmetry_Int_Tables_number   1
_chemical_formula_structural   LiBr
_chemical_formula_sum   'Li3 Br3'
_cell_volume   125.17414608
_cell_formula_units_Z   3
loop_
 _symmetry_equiv_pos_site_id
 _symmetry_equiv_pos_as_xyz
  1  'x, y, z'
loop_
 _atom_site_type_symbol
 _atom_site_label
 _atom_site_symmetry_multiplicity
 _atom_site_fract_x
 _atom_site_fract_y
 _atom_site_fract_z
 _atom_site_occupancy
  Li  Li0  1  0.33116191  -0.00074168  0.39577695  1
  Li  Li1  1  0.00076034  0.33184276  0.06259932  1
  Li  Li2  1  0.66819815  0.66884565  0.72942093  1
  Br  Br3  1  0.33600005  0.00131215  0.89580248  1
  Br  Br4  1  -0.00127343  0.33500347  0.56241860  1
  Br  Br5  1  0.66515297  0.66373765  0.22902542  1
