# generated using pymatgen
data_NaI
_symmetry_space_group_name_H-M   'P 1'
_cell_length_a   7.82553810
_cell_length_b   4.61238169
_cell_length_c   7.73042393
_cell_angle_alpha   89.99891867
_cell_angle_beta   90.00212042
_cell_angle_gamma   89.99169764
_symmetry_Int_Tables_number   1
_chemical_formula_structural   NaI
_chemical_formula_sum   'Na4 I4'
_cell_volume   279.02476837
_cell_formula_units_Z   4
loop_
 _symmetry_equiv_pos_site_id
 _symmetry_equiv_pos_as_xyz
  1  'x, y, z'
loop_
 _atom_site_type_symbol
 _atom_site_label
 _atom_site_symmetry_multiplicity
 _atom_site_fract_x
 _atom_site_fract_y
 _atom_site_fract_z
 _atom_site_occupancy
  Na  Na0  1  0.24706189  0.75212952  0.21028893  1
  Na  Na1  1  0.74706049  0.24778253  0.21026967  1
  Na  Na2  1  0.75294820  0.24787780  0.71028192  1
  Na  Na3  1  0.25293012  0.75221528  0.71031520  1
  I  I4  1  0.91478299  0.74949066  -0.04052417  1
  I  I5  1  0.41478277  0.25047596  -0.04050659  1
  I  I6  1  0.08521313  0.25053970  0.45947358  1
  I  I7  1  0.58522041  0.74948854  0.45949006  1
