# generated using pymatgen
data_NaI
_symmetry_space_group_name_H-M   'P 1'
_cell_length_a   7.89710983
_cell_length_b   4.56023808
_cell_length_c   7.73072978
_cell_angle_alpha   90.00044745
_cell_angle_beta   90.00077075
_cell_angle_gamma   89.99942574
_symmetry_Int_Tables_number   1
_chemical_formula_structural   NaI
_chemical_formula_sum   'Na4 I4'
_cell_volume   278.40445971
_cell_formula_units_Z   4
loop_
 _symmetry_equiv_pos_site_id
 _symmetry_equiv_pos_as_xyz
  1  'x, y, z'
loop_
 _atom_site_type_symbol
 _atom_site_label
 _atom_site_symmetry_multiplicity
 _atom_site_fract_x
 _atom_site_fract_y
 _atom_site_fract_z
 _atom_site_occupancy
  Na  Na0  1  0.75016074  0.74764110  0.28663163  1
  Na  Na1  1  0.25016074  0.25235915  0.28663090  1
  Na  Na2  1  0.24983898  0.25235889  0.78663416  1
  Na  Na3  1  0.74983926  0.74764210  0.78663503  1
  I  I4  1  0.58335973  0.24877578  0.53779348  1
  I  I5  1  0.08335983  0.75122358  0.53779383  1
  I  I6  1  0.41664039  0.75122393  0.03779369  1
  I  I7  1  0.91664033  0.24877547  0.03779336  1
