# generated using pymatgen
data_KI
_symmetry_space_group_name_H-M   'P 1'
_cell_length_a   6.65797691
_cell_length_b   6.20453783
_cell_length_c   8.84354973
_cell_angle_alpha   90.00005521
_cell_angle_beta   90.00000856
_cell_angle_gamma   90.00000046
_symmetry_Int_Tables_number   1
_chemical_formula_structural   KI
_chemical_formula_sum   'K4 I4'
_cell_volume   365.32411769
_cell_formula_units_Z   4
loop_
 _symmetry_equiv_pos_site_id
 _symmetry_equiv_pos_as_xyz
  1  'x, y, z'
loop_
 _atom_site_type_symbol
 _atom_site_label
 _atom_site_symmetry_multiplicity
 _atom_site_fract_x
 _atom_site_fract_y
 _atom_site_fract_z
 _atom_site_occupancy
  K  K0  1  0.16758388  0.75016413  0.59757006  1
  K  K1  1  0.66758390  0.24983610  0.59757010  1
  K  K2  1  0.83241616  0.24983609  0.09757005  1
  K  K3  1  0.33241617  0.75016408  0.09757004  1
  I  I4  1  0.15593694  0.25020005  0.40816327  1
  I  I5  1  0.65593694  0.74979978  0.40816327  1
  I  I6  1  0.84406300  0.74979977  0.90816321  1
  I  I7  1  0.34406300  0.25019999  0.90816323  1
