# generated using pymatgen
data_LiBr
_symmetry_space_group_name_H-M   'P 1'
_cell_length_a   9.87080276
_cell_length_b   9.87083224
_cell_length_c   13.26741788
_cell_angle_alpha   90.00305640
_cell_angle_beta   89.99717437
_cell_angle_gamma   119.99949051
_symmetry_Int_Tables_number   1
_chemical_formula_structural   LiBr
_chemical_formula_sum   'Li18 Br18'
_cell_volume   1119.50364930
_cell_formula_units_Z   18
loop_
 _symmetry_equiv_pos_site_id
 _symmetry_equiv_pos_as_xyz
  1  'x, y, z'
loop_
 _atom_site_type_symbol
 _atom_site_label
 _atom_site_symmetry_multiplicity
 _atom_site_fract_x
 _atom_site_fract_y
 _atom_site_fract_z
 _atom_site_occupancy
  Li  Li0  1  0.74714008  -0.00069841  -0.01643160  1
  Li  Li1  1  0.74712278  0.74780060  0.48355904  1
  Li  Li2  1  0.33403165  0.91952886  0.15023576  1
  Li  Li3  1  0.58547108  0.66597808  0.15024367  1
  Li  Li4  1  0.66735427  0.08119461  0.31690877  1
  Li  Li5  1  0.00068735  0.74785876  -0.01642438  1
  Li  Li6  1  0.58553284  0.91954428  0.65022573  1
  Li  Li7  1  0.33402127  0.41452686  0.65024281  1
  Li  Li8  1  0.25219918  0.25287837  -0.01644076  1
  Li  Li9  1  0.25214041  -0.00068785  0.48357659  1
  Li  Li10  1  0.08047256  0.66596962  0.65023433  1
  Li  Li11  1  0.08045417  0.41446529  0.15022639  1
  Li  Li12  1  0.91886627  0.58621250  0.31689179  1
  Li  Li13  1  0.91880505  0.33264446  0.81690930  1
  Li  Li14  1  0.00069714  0.25285966  0.48356997  1
  Li  Li15  1  0.66736474  0.58619503  0.81690309  1
  Li  Li16  1  0.41380666  0.33263753  0.31690211  1
  Li  Li17  1  0.41378918  0.08113354  0.81689293  1
  Br  Br18  1  0.73738239  0.73665222  0.98372000  1
  Br  Br19  1  0.73740462  0.00070931  0.48369601  1
  Br  Br20  1  0.59667886  -0.07071380  0.15038605  1
  Br  Br21  1  0.33256496  0.40330815  0.15038277  1
  Br  Br22  1  -0.06997618  0.33410073  0.31705023  1
  Br  Br23  1  0.26335636  0.00076639  0.98371563  1
  Br  Br24  1  0.33262496  -0.07073796  0.65036346  1
  Br  Br25  1  0.59669107  0.66743298  0.65038253  1
  Br  Br26  1  -0.00070924  0.26259518  0.98369629  1
  Br  Br27  1  -0.00076700  0.73664303  0.48371531  1
  Br  Br28  1  0.07071604  0.40332004  0.65038549  1
  Br  Br29  1  0.07073969  0.66737620  0.15036325  1
  Br  Br30  1  0.66595829  0.59592943  0.31702978  1
  Br  Br31  1  0.66589908  0.06997412  0.81704944  1
  Br  Br32  1  0.26334499  0.26261895  0.48371956  1
  Br  Br33  1  -0.06998857  0.59595160  0.81705191  1
  Br  Br34  1  0.40404989  0.06998786  0.31705167  1
  Br  Br35  1  0.40407313  0.33404376  0.81703059  1
