# generated using pymatgen
data_LiBr
_symmetry_space_group_name_H-M   'P 1'
_cell_length_a   8.28274887
_cell_length_b   8.28274951
_cell_length_c   6.68847791
_cell_angle_alpha   90.00000282
_cell_angle_beta   90.00008121
_cell_angle_gamma   90.00004190
_symmetry_Int_Tables_number   1
_chemical_formula_structural   LiBr
_chemical_formula_sum   'Li8 Br8'
_cell_volume   458.85589830
_cell_formula_units_Z   8
loop_
 _symmetry_equiv_pos_site_id
 _symmetry_equiv_pos_as_xyz
  1  'x, y, z'
loop_
 _atom_site_type_symbol
 _atom_site_label
 _atom_site_symmetry_multiplicity
 _atom_site_fract_x
 _atom_site_fract_y
 _atom_site_fract_z
 _atom_site_occupancy
  Li  Li0  1  0.63535712  0.64386130  0.53142750  1
  Li  Li1  1  0.85613785  0.86464000  0.03143265  1
  Li  Li2  1  0.86464475  0.14386315  0.53144083  1
  Li  Li3  1  0.14386227  0.13535767  0.03143750  1
  Li  Li4  1  0.13535454  0.85613830  0.53144083  1
  Li  Li5  1  0.36464331  0.35614067  0.53142951  1
  Li  Li6  1  0.64385962  0.36464295  0.03143158  1
  Li  Li7  1  0.35613911  0.63535421  0.03143527  1
  Br  Br8  1  0.66133224  0.34745078  0.41151782  1
  Br  Br9  1  0.15254759  0.83866880  0.91152712  1
  Br  Br10  1  0.83867107  0.84745526  0.41151844  1
  Br  Br11  1  0.84745367  0.16133104  0.91152661  1
  Br  Br12  1  0.16133026  0.15254764  0.41152445  1
  Br  Br13  1  0.33866837  0.65255027  0.41152196  1
  Br  Br14  1  0.34745220  0.33866764  0.91151803  1
  Br  Br15  1  0.65254600  0.66133031  0.91151743  1
