# generated using pymatgen
data_LiBr
_symmetry_space_group_name_H-M   'P 1'
_cell_length_a   11.80860530
_cell_length_b   11.80861585
_cell_length_c   7.36775399
_cell_angle_alpha   90.00165567
_cell_angle_beta   89.99803868
_cell_angle_gamma   120.00642342
_symmetry_Int_Tables_number   1
_chemical_formula_structural   LiBr
_chemical_formula_sum   'Li18 Br18'
_cell_volume   889.68288207
_cell_formula_units_Z   18
loop_
 _symmetry_equiv_pos_site_id
 _symmetry_equiv_pos_as_xyz
  1  'x, y, z'
loop_
 _atom_site_type_symbol
 _atom_site_label
 _atom_site_symmetry_multiplicity
 _atom_site_fract_x
 _atom_site_fract_y
 _atom_site_fract_z
 _atom_site_occupancy
  Li  Li0  1  0.83391278  0.29277880  0.16488967  1
  Li  Li1  1  0.83388906  0.54113469  0.66492034  1
  Li  Li2  1  0.04058931  0.83278891  0.33157614  1
  Li  Li3  1  0.79222403  -0.04060522  0.33162007  1
  Li  Li4  1  0.37392090  0.87444261  0.49823279  1
  Li  Li5  1  0.70723827  0.54110817  0.16493939  1
  Li  Li6  1  0.79219588  0.83281115  0.83160396  1
  Li  Li7  1  0.04060647  0.20777543  0.83161862  1
  Li  Li8  1  0.45886620  0.16611340  0.16492449  1
  Li  Li9  1  0.45889311  0.29276186  0.66494141  1
  Li  Li10  1  0.16721106  -0.04058954  0.83157599  1
  Li  Li11  1  0.16718947  0.20780375  0.33160274  1
  Li  Li12  1  0.12552954  0.49946048  0.49821637  1
  Li  Li13  1  0.12555832  0.62607864  -0.00176677  1
  Li  Li14  1  0.70722163  0.16608818  0.66489289  1
  Li  Li15  1  0.37390561  0.49943776  -0.00181168  1
  Li  Li16  1  0.50056144  0.62609380  0.49818911  1
  Li  Li17  1  0.50053830  0.87447006  -0.00178074  1
  Br  Br18  1  0.20809325  0.04124480  0.16304364  1
  Br  Br19  1  0.20812606  0.16688065  0.66305408  1
  Br  Br20  1  0.29209164  0.45857010  0.32968995  1
  Br  Br21  1  0.16646293  0.70790952  0.32972086  1
  Br  Br22  1  0.62542873  0.50020582  0.49640396  1
  Br  Br23  1  -0.04124606  0.16686144  0.16307174  1
  Br  Br24  1  0.16644449  0.45853692  0.82970144  1
  Br  Br25  1  0.29208983  0.83353619  0.82972062  1
  Br  Br26  1  0.83311918  0.79187461  0.16305484  1
  Br  Br27  1  0.83313813  0.04124640  0.66307312  1
  Br  Br28  1  0.54142932  0.70790828  0.82969104  1
  Br  Br29  1  0.54146263  0.83355508  0.32970326  1
  Br  Br30  1  0.49977476  0.12520583  0.49638614  1
  Br  Br31  1  0.49979351  0.37457159  -0.00359520  1
  Br  Br32  1  -0.04124560  0.79190716  0.66304317  1
  Br  Br33  1  0.62543057  0.12523894  -0.00362657  1
  Br  Br34  1  0.87476106  0.37456813  0.49637118  1
  Br  Br35  1  0.87479420  0.50022562  -0.00361643  1
