# generated using pymatgen
data_KBr
_symmetry_space_group_name_H-M   'P 1'
_cell_length_a   16.58188298
_cell_length_b   16.68554736
_cell_length_c   4.69034330
_cell_angle_alpha   90.00007190
_cell_angle_beta   89.99939392
_cell_angle_gamma   89.99910228
_symmetry_Int_Tables_number   1
_chemical_formula_structural   KBr
_chemical_formula_sum   'K16 Br16'
_cell_volume   1297.71383670
_cell_formula_units_Z   16
loop_
 _symmetry_equiv_pos_site_id
 _symmetry_equiv_pos_as_xyz
  1  'x, y, z'
loop_
 _atom_site_type_symbol
 _atom_site_label
 _atom_site_symmetry_multiplicity
 _atom_site_fract_x
 _atom_site_fract_y
 _atom_site_fract_z
 _atom_site_occupancy
  K  K0  1  0.22798102  0.38179875  -0.00213274  1
  K  K1  1  0.77201965  0.61820138  -0.00213497  1
  K  K2  1  0.02201798  0.63180854  0.24798233  1
  K  K3  1  0.27201964  0.61820138  0.49786515  1
  K  K4  1  0.52201797  0.63180853  0.74798233  1
  K  K5  1  0.47798277  0.86819109  0.24798436  1
  K  K6  1  0.72798102  0.38179874  0.49786713  1
  K  K7  1  0.52201800  0.13180855  0.24798237  1
  K  K8  1  0.47798277  0.36819110  0.74798428  1
  K  K9  1  0.72798102  0.88179873  -0.00213294  1
  K  K10  1  0.27201967  0.11820138  -0.00213489  1
  K  K11  1  0.02201800  0.13180852  0.74798221  1
  K  K12  1  0.97798277  0.86819110  0.74798434  1
  K  K13  1  0.97798276  0.36819108  0.24798429  1
  K  K14  1  0.22798102  0.88179875  0.49786718  1
  K  K15  1  0.77201967  0.11820137  0.49786506  1
  Br  Br16  1  0.87065881  0.02184671  0.99310091  1
  Br  Br17  1  0.12934039  0.97815337  0.99311232  1
  Br  Br18  1  0.37932780  0.27185198  0.24323406  1
  Br  Br19  1  0.62934040  0.97815336  0.49311223  1
  Br  Br20  1  0.87932778  0.27185196  0.74323406  1
  Br  Br21  1  0.12067160  0.22814819  0.24322726  1
  Br  Br22  1  0.37065881  0.02184673  0.49310090  1
  Br  Br23  1  0.87932777  0.77185198  0.24323415  1
  Br  Br24  1  0.12067159  0.72814821  0.74322733  1
  Br  Br25  1  0.37065879  0.52184672  0.99310095  1
  Br  Br26  1  0.62934038  0.47815336  0.99311232  1
  Br  Br27  1  0.37932778  0.77185197  0.74323407  1
  Br  Br28  1  0.62067161  0.22814820  0.74322734  1
  Br  Br29  1  0.62067159  0.72814820  0.24322735  1
  Br  Br30  1  0.87065877  0.52184671  0.49310085  1
  Br  Br31  1  0.12934039  0.47815336  0.49311237  1
