# generated using pymatgen
data_LiI
_symmetry_space_group_name_H-M   'P 1'
_cell_length_a   12.45723234
_cell_length_b   12.45725920
_cell_length_c   7.33470425
_cell_angle_alpha   89.99972184
_cell_angle_beta   90.00025182
_cell_angle_gamma   120.00510000
_symmetry_Int_Tables_number   1
_chemical_formula_structural   LiI
_chemical_formula_sum   'Li12 I12'
_cell_volume   985.67781697
_cell_formula_units_Z   12
loop_
 _symmetry_equiv_pos_site_id
 _symmetry_equiv_pos_as_xyz
  1  'x, y, z'
loop_
 _atom_site_type_symbol
 _atom_site_label
 _atom_site_symmetry_multiplicity
 _atom_site_fract_x
 _atom_site_fract_y
 _atom_site_fract_z
 _atom_site_occupancy
  Li  Li0  1  0.46552561  0.11868360  0.50059548  1
  Li  Li1  1  0.34683117  0.46537851  0.50051259  1
  Li  Li2  1  0.65337913  0.11842317  0.00067631  1
  Li  Li3  1  0.53462091  0.65316999  0.00051641  1
  Li  Li4  1  0.46537922  0.34683252  0.00051355  1
  Li  Li5  1  0.11868419  0.46552638  0.00059636  1
  Li  Li6  1  0.34662546  0.88158132  0.00067985  1
  Li  Li7  1  0.88131591  0.53447599  0.00059543  1
  Li  Li8  1  0.88157644  0.34662075  0.50067799  1
  Li  Li9  1  0.53447357  0.88131522  0.50059899  1
  Li  Li10  1  0.65316754  0.53462116  0.50051287  1
  Li  Li11  1  0.11841875  0.65337432  0.50068028  1
  I  I12  1  0.55711732  0.68399811  0.37695420  1
  I  I13  1  0.87287508  0.55671607  0.37703873  1
  I  I14  1  0.12675912  0.68403301  0.87715378  1
  I  I15  1  0.44328477  0.12712627  0.87704138  1
  I  I16  1  0.55671497  0.87287158  0.87704358  1
  I  I17  1  0.68400148  0.55711966  0.87695810  1
  I  I18  1  0.87324174  0.31596934  0.87714605  1
  I  I19  1  0.31600201  0.44288118  0.87695502  1
  I  I20  1  0.31596684  0.87324127  0.37715005  1
  I  I21  1  0.44288159  0.31600002  0.37695548  1
  I  I22  1  0.12712698  0.44328393  0.37704325  1
  I  I23  1  0.68403021  0.12675659  0.37714773  1
