# generated using pymatgen
data_KI
_symmetry_space_group_name_H-M   'P 1'
_cell_length_a   10.22803936
_cell_length_b   10.22803005
_cell_length_c   5.23891809
_cell_angle_alpha   89.99986921
_cell_angle_beta   90.00022520
_cell_angle_gamma   89.99997576
_symmetry_Int_Tables_number   1
_chemical_formula_structural   KI
_chemical_formula_sum   'K4 I4'
_cell_volume   548.05733455
_cell_formula_units_Z   4
loop_
 _symmetry_equiv_pos_site_id
 _symmetry_equiv_pos_as_xyz
  1  'x, y, z'
loop_
 _atom_site_type_symbol
 _atom_site_label
 _atom_site_symmetry_multiplicity
 _atom_site_fract_x
 _atom_site_fract_y
 _atom_site_fract_z
 _atom_site_occupancy
  K  K0  1  0.33305591  0.89651171  0.33111541  1
  K  K1  1  0.89651220  0.66694398  0.58111410  1
  K  K2  1  0.66694391  0.10348891  0.83111614  1
  K  K3  1  0.10348849  0.33305515  0.08111720  1
  I  I4  1  0.67267424  0.87971396  0.32604904  1
  I  I5  1  0.87971346  0.32732511  0.57604670  1
  I  I6  1  0.32732503  0.12028695  0.82604581  1
  I  I7  1  0.12028675  0.67267424  0.07604796  1
