# generated using pymatgen
data_LiI
_symmetry_space_group_name_H-M   'P 1'
_cell_length_a   10.99027738
_cell_length_b   10.99061498
_cell_length_c   4.25946612
_cell_angle_alpha   90.00006241
_cell_angle_beta   90.00004402
_cell_angle_gamma   120.00846400
_symmetry_Int_Tables_number   1
_chemical_formula_structural   LiI
_chemical_formula_sum   'Li6 I6'
_cell_volume   445.53251076
_cell_formula_units_Z   6
loop_
 _symmetry_equiv_pos_site_id
 _symmetry_equiv_pos_as_xyz
  1  'x, y, z'
loop_
 _atom_site_type_symbol
 _atom_site_label
 _atom_site_symmetry_multiplicity
 _atom_site_fract_x
 _atom_site_fract_y
 _atom_site_fract_z
 _atom_site_occupancy
  Li  Li0  1  0.92300156  0.34546322  0.05383767  1
  Li  Li1  1  0.57756407  0.92300046  0.88718488  1
  Li  Li2  1  0.42243589  0.07699957  0.38718494  1
  Li  Li3  1  0.34544316  0.42243756  0.22051765  1
  Li  Li4  1  0.65455685  0.57756267  0.72051777  1
  Li  Li5  1  0.07699823  0.65453609  0.55383851  1
  I  I6  1  0.42422993  0.30512393  0.70930972  1
  I  I7  1  0.11913333  0.42426837  0.54265097  1
  I  I8  1  0.88086668  0.57573137  0.04265084  1
  I  I9  1  0.30513159  0.88087393  0.87599557  1
  I  I10  1  0.69486852  0.11912640  0.37599711  1
  I  I11  1  0.57577021  0.69487643  0.20931048  1
