# generated using pymatgen
data_NaI
_symmetry_space_group_name_H-M   'P 1'
_cell_length_a   4.37373991
_cell_length_b   17.60752360
_cell_length_c   4.49376843
_cell_angle_alpha   89.99863339
_cell_angle_beta   89.99991763
_cell_angle_gamma   90.00010447
_symmetry_Int_Tables_number   1
_chemical_formula_structural   NaI
_chemical_formula_sum   'Na4 I4'
_cell_volume   346.06838085
_cell_formula_units_Z   4
loop_
 _symmetry_equiv_pos_site_id
 _symmetry_equiv_pos_as_xyz
  1  'x, y, z'
loop_
 _atom_site_type_symbol
 _atom_site_label
 _atom_site_symmetry_multiplicity
 _atom_site_fract_x
 _atom_site_fract_y
 _atom_site_fract_z
 _atom_site_occupancy
  Na  Na0  1  0.49120895  0.89122454  0.83999673  1
  Na  Na1  1  -0.00879013  0.60877534  0.83998180  1
  Na  Na2  1  0.50879009  0.10877547  0.33996010  1
  Na  Na3  1  0.00879094  0.39122485  0.33997483  1
  I  I4  1  0.49052530  0.61473794  0.33956027  1
  I  I5  1  0.99052470  0.88526184  0.33957252  1
  I  I6  1  0.50947541  0.38526207  0.83955577  1
  I  I7  1  0.00947476  0.11473796  0.83954382  1
