# generated using pymatgen
data_KI
_symmetry_space_group_name_H-M   'P 1'
_cell_length_a   4.96436513
_cell_length_b   8.61472894
_cell_length_c   8.70108482
_cell_angle_alpha   89.99999783
_cell_angle_beta   90.00000251
_cell_angle_gamma   89.99999553
_symmetry_Int_Tables_number   1
_chemical_formula_structural   KI
_chemical_formula_sum   'K4 I4'
_cell_volume   372.11633597
_cell_formula_units_Z   4
loop_
 _symmetry_equiv_pos_site_id
 _symmetry_equiv_pos_as_xyz
  1  'x, y, z'
loop_
 _atom_site_type_symbol
 _atom_site_label
 _atom_site_symmetry_multiplicity
 _atom_site_fract_x
 _atom_site_fract_y
 _atom_site_fract_z
 _atom_site_occupancy
  K  K0  1  0.24868411  0.50104006  -0.00031382  1
  K  K1  1  0.75131589  0.00104007  0.50031381  1
  K  K2  1  0.25131592  0.49895992  0.49968635  1
  K  K3  1  0.74868407  -0.00104007  0.00031367  1
  I  I4  1  0.25032877  0.16640613  0.75110374  1
  I  I5  1  0.74967123  0.66640613  0.74889627  1
  I  I6  1  0.24967126  0.83359389  0.25110377  1
  I  I7  1  0.75032875  0.33359386  0.24889622  1
