# generated using pymatgen
data_LiBr
_symmetry_space_group_name_H-M   'P 1'
_cell_length_a   11.54583483
_cell_length_b   11.54583675
_cell_length_c   7.90303718
_cell_angle_alpha   90.00150646
_cell_angle_beta   89.99848843
_cell_angle_gamma   120.00219030
_symmetry_Int_Tables_number   1
_chemical_formula_structural   LiBr
_chemical_formula_sum   'Li18 Br18'
_cell_volume   912.35913305
_cell_formula_units_Z   18
loop_
 _symmetry_equiv_pos_site_id
 _symmetry_equiv_pos_as_xyz
  1  'x, y, z'
loop_
 _atom_site_type_symbol
 _atom_site_label
 _atom_site_symmetry_multiplicity
 _atom_site_fract_x
 _atom_site_fract_y
 _atom_site_fract_z
 _atom_site_occupancy
  Li  Li0  1  0.46188205  0.53544334  0.87858465  1
  Li  Li1  1  0.46189333  0.92644067  0.37858255  1
  Li  Li2  1  0.79789059  0.20478388  0.04524882  1
  Li  Li3  1  0.40688748  0.20210618  0.04525372  1
  Li  Li4  1  0.13122890  0.25977762  0.21191941  1
  Li  Li5  1  0.46456191  0.92644574  0.87858570  1
  Li  Li6  1  0.40689299  0.20477529  0.54525099  1
  Li  Li7  1  0.79789355  0.59311255  0.54525388  1
  Li  Li8  1  0.07355995  0.53810725  0.87858377  1
  Li  Li9  1  0.07355429  0.53543746  0.37858545  1
  Li  Li10  1  0.79521607  0.20210943  0.54524881  1
  Li  Li11  1  0.79522460  0.59310676  0.04525175  1
  Li  Li12  1  0.74022684  0.87144027  0.21191822  1
  Li  Li13  1  0.74022190  0.86877163  0.71191965  1
  Li  Li14  1  0.46455650  0.53811786  0.37858424  1
  Li  Li15  1  0.13122370  0.87145116  0.71191433  1
  Li  Li16  1  0.12854887  0.86877632  0.21191487  1
  Li  Li17  1  0.12855959  0.25977328  0.71191750  1
  Br  Br18  1  0.57418582  0.78621902  0.95178992  1
  Br  Br19  1  0.57418828  0.78797221  0.45178759  1
  Br  Br20  1  0.54711679  0.09248228  0.11845438  1
  Br  Br21  1  0.54535853  0.45288522  0.11844070  1
  Br  Br22  1  0.88044807  0.12130729  0.28510584  1
  Br  Br23  1  0.21378315  0.78797362  0.95177026  1
  Br  Br24  1  0.54536235  0.09247865  0.61845264  1
  Br  Br25  1  0.54711442  0.45464132  0.61844094  1
  Br  Br26  1  0.21202735  0.42581104  0.95178736  1
  Br  Br27  1  0.21202674  0.78621752  0.45177129  1
  Br  Br28  1  0.90751843  0.45288475  0.61845445  1
  Br  Br29  1  0.90752211  0.45463864  0.11845245  1
  Br  Br30  1  0.87869437  0.75914388  0.28512046  1
  Br  Br31  1  0.87869305  0.11955199  0.78510458  1
  Br  Br32  1  0.21378017  0.42581369  0.45178925  1
  Br  Br33  1  0.88044927  0.75914801  0.78512309  1
  Br  Br34  1  0.24085146  0.11954967  0.28512288  1
  Br  Br35  1  0.24085654  0.12130452  0.78511979  1
