# generated using pymatgen
data_NaI
_symmetry_space_group_name_H-M   'P 1'
_cell_length_a   9.20849398
_cell_length_b   7.98649895
_cell_length_c   4.66398289
_cell_angle_alpha   54.48999429
_cell_angle_beta   90.09177878
_cell_angle_gamma   90.02847854
_symmetry_Int_Tables_number   1
_chemical_formula_structural   NaI
_chemical_formula_sum   'Na4 I4'
_cell_volume   279.21150067
_cell_formula_units_Z   4
loop_
 _symmetry_equiv_pos_site_id
 _symmetry_equiv_pos_as_xyz
  1  'x, y, z'
loop_
 _atom_site_type_symbol
 _atom_site_label
 _atom_site_symmetry_multiplicity
 _atom_site_fract_x
 _atom_site_fract_y
 _atom_site_fract_z
 _atom_site_occupancy
  Na  Na0  1  0.12221085  0.74876795  0.89207268  1
  Na  Na1  1  0.37777434  0.24931474  0.89166868  1
  Na  Na2  1  0.87776669  0.25127663  0.88778650  1
  Na  Na3  1  0.62225944  0.75069051  0.88811338  1
  I  I4  1  0.12674428  0.24923188  0.38888724  1
  I  I5  1  0.37336448  0.74944772  0.38860248  1
  I  I6  1  0.87323830  0.75075849  0.39070778  1
  I  I7  1  0.62664162  0.25051208  0.39107225  1
