# generated using pymatgen
data_NaI
_symmetry_space_group_name_H-M   'P 1'
_cell_length_a   9.46749011
_cell_length_b   5.11900196
_cell_length_c   9.38189933
_cell_angle_alpha   90.00318578
_cell_angle_beta   121.83789491
_cell_angle_gamma   89.99567793
_symmetry_Int_Tables_number   1
_chemical_formula_structural   NaI
_chemical_formula_sum   'Na4 I4'
_cell_volume   386.27516889
_cell_formula_units_Z   4
loop_
 _symmetry_equiv_pos_site_id
 _symmetry_equiv_pos_as_xyz
  1  'x, y, z'
loop_
 _atom_site_type_symbol
 _atom_site_label
 _atom_site_symmetry_multiplicity
 _atom_site_fract_x
 _atom_site_fract_y
 _atom_site_fract_z
 _atom_site_occupancy
  Na  Na0  1  0.33081588  -0.04555165  0.24850677  1
  Na  Na1  1  0.66919620  0.45442155  0.25148584  1
  Na  Na2  1  0.66918455  0.04555161  0.75149345  1
  Na  Na3  1  0.33080339  0.54557854  0.74851397  1
  I  I4  1  0.72573623  0.95661112  0.45984544  1
  I  I5  1  0.27426228  0.45661515  0.04015140  1
  I  I6  1  0.27426398  0.04338873  0.54015457  1
  I  I7  1  0.72573750  0.54338496  0.95984856  1
