# generated using pymatgen
data_NaI
_symmetry_space_group_name_H-M   'P 1'
_cell_length_a   15.11757510
_cell_length_b   15.11757132
_cell_length_c   15.11760108
_cell_angle_alpha   90.00016552
_cell_angle_beta   90.00278409
_cell_angle_gamma   90.00030412
_symmetry_Int_Tables_number   1
_chemical_formula_structural   NaI
_chemical_formula_sum   'Na24 I24'
_cell_volume   3454.99196180
_cell_formula_units_Z   24
loop_
 _symmetry_equiv_pos_site_id
 _symmetry_equiv_pos_as_xyz
  1  'x, y, z'
loop_
 _atom_site_type_symbol
 _atom_site_label
 _atom_site_symmetry_multiplicity
 _atom_site_fract_x
 _atom_site_fract_y
 _atom_site_fract_z
 _atom_site_occupancy
  Na  Na0  1  0.09122636  0.91627681  0.84239626  1
  Na  Na1  1  0.59122615  0.58372535  0.15760434  1
  Na  Na2  1  0.34239578  0.09122453  0.58372326  1
  Na  Na3  1  0.34239532  0.40877448  0.08372264  1
  Na  Na4  1  0.41627780  0.65760614  0.90877782  1
  Na  Na5  1  0.84239486  0.09122658  0.91627669  1
  Na  Na6  1  0.15760462  0.59122555  0.58372458  1
  Na  Na7  1  0.65760423  0.90877543  0.41627674  1
  Na  Na8  1  0.08372582  0.34239664  0.40877147  1
  Na  Na9  1  0.91627467  0.84239594  0.09122624  1
  Na  Na10  1  0.58372261  0.15760611  0.59122476  1
  Na  Na11  1  0.90877517  0.41627802  0.65760529  1
  Na  Na12  1  0.40877504  0.08372476  0.34239423  1
  Na  Na13  1  0.15760513  0.90877350  0.08372334  1
  Na  Na14  1  0.84239532  0.40877440  0.41627545  1
  Na  Na15  1  0.65760475  0.59122551  0.91627736  1
  Na  Na16  1  0.58372225  0.34239388  0.09122224  1
  Na  Na17  1  0.91627402  0.65760333  0.59122859  1
  Na  Na18  1  0.08372520  0.15760400  0.90877380  1
  Na  Na19  1  0.41627748  0.84239390  0.40877524  1
  Na  Na20  1  0.09122476  0.58372191  0.34239455  1
  Na  Na21  1  0.59122502  0.91627517  0.65760576  1
  Na  Na22  1  0.90877359  0.08372324  0.15760369  1
  Na  Na23  1  0.40877391  0.41627466  0.84239558  1
  I  I24  1  0.26959279  0.52642392  0.94089407  1
  I  I25  1  0.76959535  0.97357622  0.05910690  1
  I  I26  1  0.44089415  0.26959432  0.97357571  1
  I  I27  1  0.44089481  0.23040548  0.47357504  1
  I  I28  1  0.02642163  0.55910610  0.73040636  1
  I  I29  1  0.94089292  0.26959418  0.52642445  1
  I  I30  1  0.05910807  0.76959444  0.97357632  1
  I  I31  1  0.55910592  0.73040568  0.02642424  1
  I  I32  1  0.47357342  0.44089143  0.23040437  1
  I  I33  1  0.52642669  0.94089219  0.26959573  1
  I  I34  1  0.97357840  0.05910706  0.76959332  1
  I  I35  1  0.73040725  0.02642363  0.55910694  1
  I  I36  1  0.23040475  0.47357589  0.44089179  1
  I  I37  1  0.05910713  0.73040591  0.47357547  1
  I  I38  1  0.94089194  0.23040551  0.02642371  1
  I  I39  1  0.55910518  0.76959456  0.52642497  1
  I  I40  1  0.97357840  0.44089409  0.26959368  1
  I  I41  1  0.52642657  0.55910854  0.76959565  1
  I  I42  1  0.47357326  0.05910784  0.73040430  1
  I  I43  1  0.02642161  0.94089289  0.23040673  1
  I  I44  1  0.26959276  0.97357634  0.44089314  1
  I  I45  1  0.76959533  0.52642414  0.55910818  1
  I  I46  1  0.73040716  0.47357605  0.05910589  1
  I  I47  1  0.23040465  0.02642373  0.94089310  1
