# generated using pymatgen
data_LiI
_symmetry_space_group_name_H-M   'P 1'
_cell_length_a   7.88317796
_cell_length_b   4.57136737
_cell_length_c   7.41111164
_cell_angle_alpha   89.99999101
_cell_angle_beta   90.00002735
_cell_angle_gamma   89.99999552
_symmetry_Int_Tables_number   1
_chemical_formula_structural   LiI
_chemical_formula_sum   'Li4 I4'
_cell_volume   267.07350761
_cell_formula_units_Z   4
loop_
 _symmetry_equiv_pos_site_id
 _symmetry_equiv_pos_as_xyz
  1  'x, y, z'
loop_
 _atom_site_type_symbol
 _atom_site_label
 _atom_site_symmetry_multiplicity
 _atom_site_fract_x
 _atom_site_fract_y
 _atom_site_fract_z
 _atom_site_occupancy
  Li  Li0  1  0.41549573  0.25234366  0.30270957  1
  Li  Li1  1  0.91549565  0.74765624  0.30270804  1
  Li  Li2  1  0.58450432  0.74765649  0.80270972  1
  Li  Li3  1  0.08450427  0.25234347  0.80271127  1
  I  I4  1  0.91833932  0.75167557  0.92567420  1
  I  I5  1  0.41833936  0.24832446  0.92567443  1
  I  I6  1  0.08166066  0.24832349  0.42567492  1
  I  I7  1  0.58166068  0.75167662  0.42567467  1
