# generated using pymatgen
data_NaI
_symmetry_space_group_name_H-M   'P 1'
_cell_length_a   7.25152565
_cell_length_b   6.91586979
_cell_length_c   5.16620923
_cell_angle_alpha   89.99773860
_cell_angle_beta   134.87230532
_cell_angle_gamma   90.00165817
_symmetry_Int_Tables_number   1
_chemical_formula_structural   NaI
_chemical_formula_sum   'Na2 I2'
_cell_volume   183.61110465
_cell_formula_units_Z   2
loop_
 _symmetry_equiv_pos_site_id
 _symmetry_equiv_pos_as_xyz
  1  'x, y, z'
loop_
 _atom_site_type_symbol
 _atom_site_label
 _atom_site_symmetry_multiplicity
 _atom_site_fract_x
 _atom_site_fract_y
 _atom_site_fract_z
 _atom_site_occupancy
  Na  Na0  1  0.24856668  0.69919513  -0.00003118  1
  Na  Na1  1  0.75143086  0.19919495  0.00005043  1
  I  I2  1  0.25110262  0.94753967  0.50192894  1
  I  I3  1  0.74889983  0.44754001  0.49805181  1
