# generated using pymatgen
data_LiBr
_symmetry_space_group_name_H-M   'P 1'
_cell_length_a   13.64843224
_cell_length_b   13.64678646
_cell_length_c   13.84615207
_cell_angle_alpha   63.17103293
_cell_angle_beta   116.82385633
_cell_angle_gamma   119.88168597
_symmetry_Int_Tables_number   1
_chemical_formula_structural   LiBr
_chemical_formula_sum   'Li36 Br36'
_cell_volume   1908.06389122
_cell_formula_units_Z   36
loop_
 _symmetry_equiv_pos_site_id
 _symmetry_equiv_pos_as_xyz
  1  'x, y, z'
loop_
 _atom_site_type_symbol
 _atom_site_label
 _atom_site_symmetry_multiplicity
 _atom_site_fract_x
 _atom_site_fract_y
 _atom_site_fract_z
 _atom_site_occupancy
  Li  Li0  1  0.02207389  0.59426094  0.37846683  1
  Li  Li1  1  0.71112945  0.59665263  0.22377139  1
  Li  Li2  1  0.29625276  0.86790232  0.21572480  1
  Li  Li3  1  0.28957984  0.40441822  0.77595047  1
  Li  Li4  1  0.04358400  0.26360550  0.88914568  1
  Li  Li5  1  -0.03882244  0.20250415  0.54757277  1
  Li  Li6  1  0.79786565  0.03889296  0.04736436  1
  Li  Li7  1  0.86815108  0.29601853  0.28461826  1
  Li  Li8  1  0.20281925  -0.03887123  0.95271163  1
  Li  Li9  1  0.46422242  0.37124423  0.38141463  1
  Li  Li10  1  -0.04319869  0.73833891  0.11002257  1
  Li  Li11  1  0.92716351  0.68843954  0.78849008  1
  Li  Li12  1  0.07194424  0.31161618  0.21100322  1
  Li  Li13  1  0.92833498  0.37693153  0.94213086  1
  Li  Li14  1  0.03899405  0.79804156  0.45252721  1
  Li  Li15  1  0.13105577  0.70362028  0.71574791  1
  Li  Li16  1  0.53573230  0.62923346  0.61816742  1
  Li  Li17  1  0.70375384  0.13125985  0.78421797  1
  Li  Li18  1  0.64462543  0.73946453  0.95494458  1
  Li  Li19  1  0.26399033  0.04370941  0.61085936  1
  Li  Li20  1  0.62198845  0.06896710  0.44320302  1
  Li  Li21  1  0.35494226  0.26058001  0.04491936  1
  Li  Li22  1  0.73816113  -0.04330820  0.39007608  1
  Li  Li23  1  0.37693234  0.92800495  0.55800413  1
  Li  Li24  1  -0.02146914  0.40641306  0.62129258  1
  Li  Li25  1  0.06867667  0.62167449  0.05702529  1
  Li  Li26  1  0.31199549  0.07208797  0.28912605  1
  Li  Li27  1  0.59696051  0.71136722  0.27605136  1
  Li  Li28  1  0.68815828  0.92706470  0.71150856  1
  Li  Li29  1  0.40386701  0.28956968  0.72378513  1
  Li  Li30  1  0.62902219  0.53567605  0.88175116  1
  Li  Li31  1  0.73937953  0.64452671  0.54496062  1
  Li  Li32  1  0.26054054  0.35521340  0.45488686  1
  Li  Li33  1  0.37092820  0.46454409  0.11820564  1
  Li  Li34  1  0.40640965  -0.02175253  0.87882748  1
  Li  Li35  1  0.59442155  0.02222115  0.12159436  1
  Br  Br36  1  0.58586074  0.74399518  0.43684167  1
  Br  Br37  1  0.28952124  0.45175731  0.25813252  1
  Br  Br38  1  0.66577559  0.13414775  0.25917756  1
  Br  Br39  1  0.70985427  0.54798543  0.74165547  1
  Br  Br40  1  0.62354765  0.11971986  0.92457505  1
  Br  Br41  1  0.33314621  0.46818940  0.59214867  1
  Br  Br42  1  0.53227499  0.66716061  0.09250182  1
  Br  Br43  1  0.13408955  0.66565627  0.24095504  1
  Br  Br44  1  0.46786070  0.33318564  0.90759764  1
  Br  Br45  1  0.19966100  0.00063878  0.42667428  1
  Br  Br46  1  0.37742532  0.88059643  0.07564261  1
  Br  Br47  1  0.07683771  0.25220497  0.72887421  1
  Br  Br48  1  0.92392514  0.74870315  0.27098856  1
  Br  Br49  1  0.78480489  0.95698583  0.90787810  1
  Br  Br50  1  0.66703465  0.53225313  0.40731100  1
  Br  Br51  1  0.86507797  0.33394445  0.75797339  1
  Br  Br52  1  0.80104693  -0.00062635  0.57427146  1
  Br  Br53  1  0.33387437  0.86486084  0.74205754  1
  Br  Br54  1  0.08096692  0.58921182  0.89660751  1
  Br  Br55  1  0.11981670  0.62359654  0.57537333  1
  Br  Br56  1  0.04268275  0.21536371  0.40786273  1
  Br  Br57  1  -0.08330845  0.40931160  0.10296271  1
  Br  Br58  1  0.88062255  0.37715108  0.42461252  1
  Br  Br59  1  0.95691169  0.78471463  0.59200519  1
  Br  Br60  1  0.41509003  0.25676292  0.56322763  1
  Br  Br61  1  0.21556189  0.04255809  0.09237624  1
  Br  Br62  1  0.74891623  0.92412955  0.22903658  1
  Br  Br63  1  0.45161729  0.28987552  0.24155649  1
  Br  Br64  1  0.25221087  0.07657715  0.77116535  1
  Br  Br65  1  0.54768742  0.70980115  0.75834421  1
  Br  Br66  1  -0.00040662  0.80115894  0.92593955  1
  Br  Br67  1  0.58909955  0.08099839  0.60346931  1
  Br  Br68  1  0.40968131  -0.08317520  0.39717825  1
  Br  Br69  1  0.00057290  0.19942551  0.07337186  1
  Br  Br70  1  0.25641748  0.41510017  0.93657607  1
  Br  Br71  1  0.74407428  0.58594637  0.06300822  1
