# generated using pymatgen
data_LiBr
_symmetry_space_group_name_H-M   'P 1'
_cell_length_a   3.89380026
_cell_length_b   3.89376863
_cell_length_c   9.54099327
_cell_angle_alpha   89.99859927
_cell_angle_beta   90.00217969
_cell_angle_gamma   120.00029643
_symmetry_Int_Tables_number   1
_chemical_formula_structural   LiBr
_chemical_formula_sum   'Li3 Br3'
_cell_volume   125.27567038
_cell_formula_units_Z   3
loop_
 _symmetry_equiv_pos_site_id
 _symmetry_equiv_pos_as_xyz
  1  'x, y, z'
loop_
 _atom_site_type_symbol
 _atom_site_label
 _atom_site_symmetry_multiplicity
 _atom_site_fract_x
 _atom_site_fract_y
 _atom_site_fract_z
 _atom_site_occupancy
  Li  Li0  1  -0.00218227  0.66520860  0.00975662  1
  Li  Li1  1  0.33480305  0.33260723  0.67641736  1
  Li  Li2  1  0.66737531  0.00217376  0.34308326  1
  Br  Br3  1  0.00078293  0.66720817  0.50977201  1
  Br  Br4  1  0.33279123  0.33358065  0.17644388  1
  Br  Br5  1  0.66642975  0.99922161  0.84310949  1
