# generated using pymatgen
data_LiBr
_symmetry_space_group_name_H-M   'P 1'
_cell_length_a   7.11405492
_cell_length_b   7.11433171
_cell_length_c   6.34081842
_cell_angle_alpha   90.00110945
_cell_angle_beta   90.00033629
_cell_angle_gamma   90.01518671
_symmetry_Int_Tables_number   1
_chemical_formula_structural   LiBr
_chemical_formula_sum   'Li4 Br4'
_cell_volume   320.91988337
_cell_formula_units_Z   4
loop_
 _symmetry_equiv_pos_site_id
 _symmetry_equiv_pos_as_xyz
  1  'x, y, z'
loop_
 _atom_site_type_symbol
 _atom_site_label
 _atom_site_symmetry_multiplicity
 _atom_site_fract_x
 _atom_site_fract_y
 _atom_site_fract_z
 _atom_site_occupancy
  Li  Li0  1  0.12612901  0.62514889  0.38609023  1
  Li  Li1  1  0.62538856  0.87382204  0.63588272  1
  Li  Li2  1  0.87387634  0.37484925  0.88608678  1
  Li  Li3  1  0.37460758  0.12617655  0.13589572  1
  Br  Br4  1  0.63469420  0.13225239  0.88697685  1
  Br  Br5  1  0.13226956  0.36546627  0.13691115  1
  Br  Br6  1  0.36529809  0.86775026  0.38697104  1
  Br  Br7  1  0.86773667  0.63453435  0.63691235  1
