# generated using pymatgen
data_LiI
_symmetry_space_group_name_H-M   'P 1'
_cell_length_a   12.44192721
_cell_length_b   10.64053532
_cell_length_c   9.42679779
_cell_angle_alpha   90.00001970
_cell_angle_beta   90.00008722
_cell_angle_gamma   89.54259140
_symmetry_Int_Tables_number   1
_chemical_formula_structural   LiI
_chemical_formula_sum   'Li16 I16'
_cell_volume   1247.96235695
_cell_formula_units_Z   16
loop_
 _symmetry_equiv_pos_site_id
 _symmetry_equiv_pos_as_xyz
  1  'x, y, z'
loop_
 _atom_site_type_symbol
 _atom_site_label
 _atom_site_symmetry_multiplicity
 _atom_site_fract_x
 _atom_site_fract_y
 _atom_site_fract_z
 _atom_site_occupancy
  Li  Li0  1  0.38801507  0.75059278  0.94620958  1
  Li  Li1  1  0.61198489  0.24940878  0.94621099  1
  Li  Li2  1  0.86193079  0.00037459  0.19618838  1
  Li  Li3  1  0.11198179  0.24940491  0.44619978  1
  Li  Li4  1  0.36193165  0.00037390  0.69619479  1
  Li  Li5  1  0.63806837  0.49962653  0.19618942  1
  Li  Li6  1  0.88801778  0.75059524  0.44619829  1
  Li  Li7  1  0.36193291  0.50037449  0.19619427  1
  Li  Li8  1  0.63806598  -0.00037334  0.69619303  1
  Li  Li9  1  0.88802001  0.25059402  0.94619874  1
  Li  Li10  1  0.11198061  0.74940420  0.94619806  1
  Li  Li11  1  0.86193355  0.50037300  0.69618319  1
  Li  Li12  1  0.13806853  0.49962548  0.69618970  1
  Li  Li13  1  0.13806647  -0.00037320  0.19619021  1
  Li  Li14  1  0.38801635  0.25059159  0.44621258  1
  Li  Li15  1  0.61198398  0.74940701  0.44620809  1
  I  I16  1  -0.00094827  0.70616734  0.69681229  1
  I  I17  1  0.00095123  0.29383148  0.69681037  1
  I  I18  1  0.24832512  0.95613890  0.94484827  1
  I  I19  1  0.50096246  0.29383129  0.19679817  1
  I  I20  1  0.74832515  0.95613937  0.44485363  1
  I  I21  1  0.25167285  0.54386095  0.94485273  1
  I  I22  1  0.49904277  0.70617055  0.19680362  1
  I  I23  1  0.74832215  0.45613914  0.94485740  1
  I  I24  1  0.25167636  0.04386000  0.44485381  1
  I  I25  1  0.49903817  0.20616959  0.69680238  1
  I  I26  1  0.50095587  0.79383052  0.69680594  1
  I  I27  1  0.24832358  0.45613885  0.44485147  1
  I  I28  1  0.75167787  0.54386083  0.44485156  1
  I  I29  1  0.75167974  0.04386066  0.94485307  1
  I  I30  1  -0.00095028  0.20616785  0.19681287  1
  I  I31  1  0.00094648  0.79383269  0.19681429  1
