# generated using pymatgen
data_KI
_symmetry_space_group_name_H-M   'P 1'
_cell_length_a   8.68491149
_cell_length_b   4.98480551
_cell_length_c   8.61228671
_cell_angle_alpha   90.00000010
_cell_angle_beta   89.99998238
_cell_angle_gamma   89.99999983
_symmetry_Int_Tables_number   1
_chemical_formula_structural   KI
_chemical_formula_sum   'K4 I4'
_cell_volume   372.84823757
_cell_formula_units_Z   4
loop_
 _symmetry_equiv_pos_site_id
 _symmetry_equiv_pos_as_xyz
  1  'x, y, z'
loop_
 _atom_site_type_symbol
 _atom_site_label
 _atom_site_symmetry_multiplicity
 _atom_site_fract_x
 _atom_site_fract_y
 _atom_site_fract_z
 _atom_site_occupancy
  K  K0  1  -0.00045927  0.75124251  -0.00004282  1
  K  K1  1  0.00045927  0.25124250  0.50004284  1
  K  K2  1  0.50045926  0.24875756  0.49995840  1
  K  K3  1  0.49954075  0.74875756  0.00004163  1
  I  I4  1  0.74937140  0.74978691  0.66662021  1
  I  I5  1  0.25062857  0.24978697  0.83337974  1
  I  I6  1  0.75062850  0.25021302  0.16662006  1
  I  I7  1  0.24937153  0.75021297  0.33337994  1
