# generated using pymatgen
data_LiI
_symmetry_space_group_name_H-M   'P 1'
_cell_length_a   10.45700978
_cell_length_b   6.76663943
_cell_length_c   7.28578983
_cell_angle_alpha   90.00024020
_cell_angle_beta   89.99995170
_cell_angle_gamma   90.00000408
_symmetry_Int_Tables_number   1
_chemical_formula_structural   LiI
_chemical_formula_sum   'Li8 I8'
_cell_volume   515.53385287
_cell_formula_units_Z   8
loop_
 _symmetry_equiv_pos_site_id
 _symmetry_equiv_pos_as_xyz
  1  'x, y, z'
loop_
 _atom_site_type_symbol
 _atom_site_label
 _atom_site_symmetry_multiplicity
 _atom_site_fract_x
 _atom_site_fract_y
 _atom_site_fract_z
 _atom_site_occupancy
  Li  Li0  1  0.12888683  0.41683556  0.15571607  1
  Li  Li1  1  0.12888609  0.08316391  0.65571860  1
  Li  Li2  1  0.62888821  0.08316542  0.84428629  1
  Li  Li3  1  0.37111478  0.58316504  0.65571883  1
  Li  Li4  1  0.87111401  -0.08316494  0.34428118  1
  Li  Li5  1  0.37111228  -0.08316568  0.15571429  1
  Li  Li6  1  0.62888547  0.41683613  0.34427988  1
  Li  Li7  1  0.87111342  0.58316512  0.84428481  1
  I  I8  1  0.62615406  0.46839788  0.72542063  1
  I  I9  1  0.62615115  0.03160130  0.22542425  1
  I  I10  1  0.12615287  0.03160215  0.27457945  1
  I  I11  1  0.87384756  0.53160158  0.22542257  1
  I  I12  1  0.37384841  0.96839859  0.77457640  1
  I  I13  1  0.87384647  0.96839765  0.72542022  1
  I  I14  1  0.12615229  0.46839818  0.77457673  1
  I  I15  1  0.37384609  0.53160210  0.27457980  1
