# generated using pymatgen
data_LiBr
_symmetry_space_group_name_H-M   'P 1'
_cell_length_a   6.24727997
_cell_length_b   4.59945858
_cell_length_c   6.67587353
_cell_angle_alpha   89.99974999
_cell_angle_beta   83.70507047
_cell_angle_gamma   89.99982017
_symmetry_Int_Tables_number   1
_chemical_formula_structural   LiBr
_chemical_formula_sum   'Li4 Br4'
_cell_volume   190.66867528
_cell_formula_units_Z   4
loop_
 _symmetry_equiv_pos_site_id
 _symmetry_equiv_pos_as_xyz
  1  'x, y, z'
loop_
 _atom_site_type_symbol
 _atom_site_label
 _atom_site_symmetry_multiplicity
 _atom_site_fract_x
 _atom_site_fract_y
 _atom_site_fract_z
 _atom_site_occupancy
  Li  Li0  1  0.39009009  0.93971425  0.10523097  1
  Li  Li1  1  0.89009073  0.43970773  0.10523108  1
  Li  Li2  1  0.39009261  0.06028657  0.60523027  1
  Li  Li3  1  0.89009328  0.56029276  0.60523045  1
  Br  Br4  1  0.13775390  0.24647603  0.35621454  1
  Br  Br5  1  0.63775418  0.74647564  0.35621185  1
  Br  Br6  1  0.13775445  0.75352331  0.85621481  1
  Br  Br7  1  0.63775468  0.25352369  0.85621210  1
