# generated using pymatgen
data_LiBr
_symmetry_space_group_name_H-M   'P 1'
_cell_length_a   11.29572963
_cell_length_b   11.29655630
_cell_length_c   9.78673092
_cell_angle_alpha   90.00983561
_cell_angle_beta   90.01953896
_cell_angle_gamma   120.03117679
_symmetry_Int_Tables_number   1
_chemical_formula_structural   LiBr
_chemical_formula_sum   'Li18 Br18'
_cell_volume   1081.16519754
_cell_formula_units_Z   18
loop_
 _symmetry_equiv_pos_site_id
 _symmetry_equiv_pos_as_xyz
  1  'x, y, z'
loop_
 _atom_site_type_symbol
 _atom_site_label
 _atom_site_symmetry_multiplicity
 _atom_site_fract_x
 _atom_site_fract_y
 _atom_site_fract_z
 _atom_site_occupancy
  Li  Li0  1  0.68187218  0.65501785  0.16562413  1
  Li  Li1  1  0.69353205  0.01518655  0.16808916  1
  Li  Li2  1  0.31812837  0.34498322  0.83437886  1
  Li  Li3  1  0.97316510  0.31826262  0.16555154  1
  Li  Li4  1  0.32172054  0.30641844  0.16808179  1
  Li  Li5  1  0.65494639  0.97310784  0.83448789  1
  Li  Li6  1  0.01170248  0.36027998  0.49906324  1
  Li  Li7  1  0.34505317  0.02689229  0.16551273  1
  Li  Li8  1  0.02683347  0.68173540  0.83444934  1
  Li  Li9  1  0.98829742  0.63971769  0.50093634  1
  Li  Li10  1  0.67827860  0.69358166  0.83192406  1
  Li  Li11  1  0.63978958  0.65153225  0.49908660  1
  Li  Li12  1  0.36020963  0.34846551  0.50092215  1
  Li  Li13  1  0.30647069  0.98481802  0.83191104  1
  Li  Li14  1  0.34860087  0.98838017  0.49915552  1
  Li  Li15  1  0.65139890  0.01161990  0.50084387  1
  Li  Li16  1  0.98467673  0.67822021  0.16799416  1
  Li  Li17  1  0.01532350  0.32177818  0.83201049  1
  Br  Br18  1  0.53643038  0.47543288  0.68918390  1
  Br  Br19  1  0.72751504  0.86980885  0.64424784  1
  Br  Br20  1  0.46356772  0.52457079  0.31080890  1
  Br  Br21  1  -0.06085467  0.46365833  0.68914592  1
  Br  Br22  1  0.14225408  0.27243662  0.64425908  1
  Br  Br23  1  0.47544266  -0.06090426  0.31084907  1
  Br  Br24  1  0.19119890  0.39413600  0.02252641  1
  Br  Br25  1  0.52455968  0.06090407  0.68915041  1
  Br  Br26  1  0.06085529  0.53634090  0.31085430  1
  Br  Br27  1  0.80879922  0.60586450  0.97747099  1
  Br  Br28  1  0.85774289  0.72755948  0.35573682  1
  Br  Br29  1  0.60590850  0.79705734  0.02253934  1
  Br  Br30  1  0.39409307  0.20293940  0.97745440  1
  Br  Br31  1  0.27248612  0.13019643  0.35575243  1
  Br  Br32  1  0.20301008  0.80879958  0.02255158  1
  Br  Br33  1  0.79699064  0.19120039  0.97744877  1
  Br  Br34  1  0.13011285  0.85775886  0.64419546  1
  Br  Br35  1  0.86988785  0.14224204  0.35580148  1
