# generated using pymatgen
data_LiBr
_symmetry_space_group_name_H-M   'P 1'
_cell_length_a   3.86062499
_cell_length_b   6.67681825
_cell_length_c   6.45569133
_cell_angle_alpha   89.99994379
_cell_angle_beta   90.00000875
_cell_angle_gamma   89.99996716
_symmetry_Int_Tables_number   1
_chemical_formula_structural   LiBr
_chemical_formula_sum   'Li4 Br4'
_cell_volume   166.40636296
_cell_formula_units_Z   4
loop_
 _symmetry_equiv_pos_site_id
 _symmetry_equiv_pos_as_xyz
  1  'x, y, z'
loop_
 _atom_site_type_symbol
 _atom_site_label
 _atom_site_symmetry_multiplicity
 _atom_site_fract_x
 _atom_site_fract_y
 _atom_site_fract_z
 _atom_site_occupancy
  Li  Li0  1  0.74728423  -0.00066235  0.00077638  1
  Li  Li1  1  0.25271570  0.49933603  0.49922289  1
  Li  Li2  1  0.75271579  0.00066320  0.50077748  1
  Li  Li3  1  0.24728423  0.50066310  -0.00077517  1
  Br  Br4  1  0.25069275  0.83258581  0.75041164  1
  Br  Br5  1  0.74930826  0.33258570  0.74958786  1
  Br  Br6  1  0.24930725  0.16741402  0.25041125  1
  Br  Br7  1  0.75069179  0.66741449  0.24958767  1
