# generated using pymatgen
data_LiBr
_symmetry_space_group_name_H-M   'P 1'
_cell_length_a   8.38428743
_cell_length_b   7.33046515
_cell_length_c   6.89799154
_cell_angle_alpha   89.99998361
_cell_angle_beta   89.99982055
_cell_angle_gamma   90.00017015
_symmetry_Int_Tables_number   1
_chemical_formula_structural   LiBr
_chemical_formula_sum   'Li8 Br8'
_cell_volume   423.95557374
_cell_formula_units_Z   8
loop_
 _symmetry_equiv_pos_site_id
 _symmetry_equiv_pos_as_xyz
  1  'x, y, z'
loop_
 _atom_site_type_symbol
 _atom_site_label
 _atom_site_symmetry_multiplicity
 _atom_site_fract_x
 _atom_site_fract_y
 _atom_site_fract_z
 _atom_site_occupancy
  Li  Li0  1  0.13042256  0.91525608  0.33653528  1
  Li  Li1  1  0.13042244  0.58474268  0.83653264  1
  Li  Li2  1  0.63042291  0.58474308  0.66346699  1
  Li  Li3  1  0.36957688  0.08474310  0.83653602  1
  Li  Li4  1  0.86957751  0.41525687  0.16346533  1
  Li  Li5  1  0.36957952  0.41525551  0.33653450  1
  Li  Li6  1  0.63042367  0.91525841  0.16346243  1
  Li  Li7  1  0.86957605  0.08474440  0.66346595  1
  Br  Br8  1  0.13063802  0.59087076  0.20900001  1
  Br  Br9  1  0.13063553  0.90912686  0.70900176  1
  Br  Br10  1  0.63063511  0.90912802  0.79099903  1
  Br  Br11  1  0.36936233  0.40912712  0.70899934  1
  Br  Br12  1  0.86936511  0.09087318  0.29099846  1
  Br  Br13  1  0.36936428  0.09087186  0.20900120  1
  Br  Br14  1  0.63063643  0.59087257  0.29100195  1
  Br  Br15  1  0.86936166  0.40912950  0.79099911  1
