# generated using pymatgen
data_LiBr
_symmetry_space_group_name_H-M   'P 1'
_cell_length_a   7.78452718
_cell_length_b   4.29851833
_cell_length_c   7.45064317
_cell_angle_alpha   90.00002251
_cell_angle_beta   111.20668564
_cell_angle_gamma   90.00018961
_symmetry_Int_Tables_number   1
_chemical_formula_structural   LiBr
_chemical_formula_sum   'Li4 Br4'
_cell_volume   232.42984826
_cell_formula_units_Z   4
loop_
 _symmetry_equiv_pos_site_id
 _symmetry_equiv_pos_as_xyz
  1  'x, y, z'
loop_
 _atom_site_type_symbol
 _atom_site_label
 _atom_site_symmetry_multiplicity
 _atom_site_fract_x
 _atom_site_fract_y
 _atom_site_fract_z
 _atom_site_occupancy
  Li  Li0  1  0.35334006  0.50670428  0.11093652  1
  Li  Li1  1  0.64666054  0.00670635  0.38906279  1
  Li  Li2  1  0.64665994  0.49329568  0.88906344  1
  Li  Li3  1  0.35333948  0.99329372  0.61093726  1
  Br  Br4  1  0.28657491  0.49436179  0.75243203  1
  Br  Br5  1  0.71342421  0.99436391  0.74756810  1
  Br  Br6  1  0.71342513  0.50563828  0.24756803  1
  Br  Br7  1  0.28657571  0.00563598  0.25243184  1
