# generated using pymatgen
data_KBr
_symmetry_space_group_name_H-M   'P 1'
_cell_length_a   13.42697200
_cell_length_b   4.73175173
_cell_length_c   4.74821087
_cell_angle_alpha   89.99994104
_cell_angle_beta   89.99999931
_cell_angle_gamma   90.00000008
_symmetry_Int_Tables_number   1
_chemical_formula_structural   KBr
_chemical_formula_sum   'K4 Br4'
_cell_volume   301.66854586
_cell_formula_units_Z   4
loop_
 _symmetry_equiv_pos_site_id
 _symmetry_equiv_pos_as_xyz
  1  'x, y, z'
loop_
 _atom_site_type_symbol
 _atom_site_label
 _atom_site_symmetry_multiplicity
 _atom_site_fract_x
 _atom_site_fract_y
 _atom_site_fract_z
 _atom_site_occupancy
  K  K0  1  0.37511040  0.75163717  -0.00336638  1
  K  K1  1  0.62488955  0.25163721  0.50336827  1
  K  K2  1  0.12488953  0.24836282  0.49663326  1
  K  K3  1  0.87511044  0.74836286  0.00336485  1
  Br  Br4  1  0.12507279  0.74823386  -0.00314236  1
  Br  Br5  1  0.87492724  0.24823380  0.50314495  1
  Br  Br6  1  0.37492728  0.25176617  0.49685471  1
  Br  Br7  1  0.62507277  0.75176612  0.00314270  1
