# generated using pymatgen
data_LiBr
_symmetry_space_group_name_H-M   'P 1'
_cell_length_a   7.74576470
_cell_length_b   7.74595945
_cell_length_c   13.06348309
_cell_angle_alpha   89.99990443
_cell_angle_beta   90.00054988
_cell_angle_gamma   90.00020932
_symmetry_Int_Tables_number   1
_chemical_formula_structural   LiBr
_chemical_formula_sum   'Li16 Br16'
_cell_volume   783.78781338
_cell_formula_units_Z   16
loop_
 _symmetry_equiv_pos_site_id
 _symmetry_equiv_pos_as_xyz
  1  'x, y, z'
loop_
 _atom_site_type_symbol
 _atom_site_label
 _atom_site_symmetry_multiplicity
 _atom_site_fract_x
 _atom_site_fract_y
 _atom_site_fract_z
 _atom_site_occupancy
  Li  Li0  1  0.81518680  0.68433678  0.00041949  1
  Li  Li1  1  0.81565860  0.31518000  0.49957568  1
  Li  Li2  1  0.81518408  0.18434177  0.24957949  1
  Li  Li3  1  0.18481708  0.31565859  0.00042066  1
  Li  Li4  1  0.18434425  0.68481223  0.49957908  1
  Li  Li5  1  0.31565309  0.31518609  0.25041473  1
  Li  Li6  1  0.68433926  0.68481459  0.25041526  1
  Li  Li7  1  0.81566076  0.81518475  0.75041842  1
  Li  Li8  1  0.18434497  0.18481528  0.75042216  1
  Li  Li9  1  0.68481741  0.81565070  0.50041121  1
  Li  Li10  1  0.68434953  0.18481539  -0.00041395  1
  Li  Li11  1  0.31518069  0.18435612  0.50041016  1
  Li  Li12  1  0.31565671  0.81518546  -0.00041343  1
  Li  Li13  1  0.31517651  0.68435553  0.74958759  1
  Li  Li14  1  0.68480698  0.31566153  0.74958694  1
  Li  Li15  1  0.18481424  0.81565278  0.24958293  1
  Br  Br16  1  0.43635688  0.75045368  0.37531204  1
  Br  Br17  1  0.74954543  0.93635793  0.12469064  1
  Br  Br18  1  0.43635763  0.25044855  0.87469298  1
  Br  Br19  1  0.56364281  0.24954470  0.37530801  1
  Br  Br20  1  0.25045236  0.06364259  0.12469586  1
  Br  Br21  1  0.24954516  0.93635661  0.62530494  1
  Br  Br22  1  0.75045232  0.06364578  0.62530729  1
  Br  Br23  1  0.74954808  0.43635574  0.12530179  1
  Br  Br24  1  0.25045705  0.56364059  0.12530392  1
  Br  Br25  1  0.06364223  0.74954685  0.87530043  1
  Br  Br26  1  0.75045931  0.56364496  0.62469576  1
  Br  Br27  1  0.93635463  0.25045235  0.87529960  1
  Br  Br28  1  0.24954976  0.43635471  0.62470072  1
  Br  Br29  1  0.93635677  0.75045514  0.37470168  1
  Br  Br30  1  0.06364171  0.24955081  0.37469971  1
  Br  Br31  1  0.56364692  0.74954144  0.87468821  1
