# generated using pymatgen
data_LiBr
_symmetry_space_group_name_H-M   'P 1'
_cell_length_a   3.89918926
_cell_length_b   3.89944341
_cell_length_c   11.01025351
_cell_angle_alpha   89.99127912
_cell_angle_beta   90.01112120
_cell_angle_gamma   89.99958921
_symmetry_Int_Tables_number   1
_chemical_formula_structural   LiBr
_chemical_formula_sum   'Li4 Br4'
_cell_volume   167.40724288
_cell_formula_units_Z   4
loop_
 _symmetry_equiv_pos_site_id
 _symmetry_equiv_pos_as_xyz
  1  'x, y, z'
loop_
 _atom_site_type_symbol
 _atom_site_label
 _atom_site_symmetry_multiplicity
 _atom_site_fract_x
 _atom_site_fract_y
 _atom_site_fract_z
 _atom_site_occupancy
  Li  Li0  1  0.00537785  0.49580494  0.85732932  1
  Li  Li1  1  0.49579663  -0.00537041  0.60733229  1
  Li  Li2  1  -0.00537604  0.50419264  0.35732859  1
  Li  Li3  1  0.50420278  0.00537204  0.10732862  1
  Br  Br4  1  0.49887173  0.00275963  0.35722896  1
  Br  Br5  1  0.00274408  0.50110939  0.10722466  1
  Br  Br6  1  0.50112754  -0.00276168  0.85722522  1
  Br  Br7  1  -0.00274457  0.49889345  0.60722526  1
