# generated using pymatgen
data_NaI
_symmetry_space_group_name_H-M   'P 1'
_cell_length_a   7.90150160
_cell_length_b   4.55466268
_cell_length_c   7.74010377
_cell_angle_alpha   89.99994631
_cell_angle_beta   89.99922536
_cell_angle_gamma   89.99927335
_symmetry_Int_Tables_number   1
_chemical_formula_structural   NaI
_chemical_formula_sum   'Na4 I4'
_cell_volume   278.55607497
_cell_formula_units_Z   4
loop_
 _symmetry_equiv_pos_site_id
 _symmetry_equiv_pos_as_xyz
  1  'x, y, z'
loop_
 _atom_site_type_symbol
 _atom_site_label
 _atom_site_symmetry_multiplicity
 _atom_site_fract_x
 _atom_site_fract_y
 _atom_site_fract_z
 _atom_site_occupancy
  Na  Na0  1  0.24878890  0.24735860  0.46375152  1
  Na  Na1  1  0.74878655  0.75264323  0.46375050  1
  Na  Na2  1  0.75121432  0.75264094  -0.03626946  1
  Na  Na3  1  0.25120989  0.24736177  -0.03626895  1
  I  I4  1  0.08350939  0.74825582  0.71410019  1
  I  I5  1  0.58351095  0.25174170  0.71410239  1
  I  I6  1  0.91648866  0.25174319  0.21410311  1
  I  I7  1  0.41649134  0.74825475  0.21410114  1
