# generated using pymatgen
data_LiBr
_symmetry_space_group_name_H-M   'P 1'
_cell_length_a   11.51891659
_cell_length_b   11.51885295
_cell_length_c   7.92738192
_cell_angle_alpha   89.94572742
_cell_angle_beta   90.05448833
_cell_angle_gamma   119.95973709
_symmetry_Int_Tables_number   1
_chemical_formula_structural   LiBr
_chemical_formula_sum   'Li18 Br18'
_cell_volume   911.29099216
_cell_formula_units_Z   18
loop_
 _symmetry_equiv_pos_site_id
 _symmetry_equiv_pos_as_xyz
  1  'x, y, z'
loop_
 _atom_site_type_symbol
 _atom_site_label
 _atom_site_symmetry_multiplicity
 _atom_site_fract_x
 _atom_site_fract_y
 _atom_site_fract_z
 _atom_site_occupancy
  Li  Li0  1  0.59328869  0.79482980  0.00638785  1
  Li  Li1  1  0.59328676  0.79826085  0.50640007  1
  Li  Li2  1  0.53851796  0.07338238  0.17302802  1
  Li  Li3  1  0.53506402  0.46167209  0.17299703  1
  Li  Li4  1  0.87166531  0.13160141  0.33965571  1
  Li  Li5  1  0.20498426  0.79826666  0.00633443  1
  Li  Li6  1  0.53506483  0.07338582  0.67305348  1
  Li  Li7  1  0.53832179  0.46493037  0.67299577  1
  Li  Li8  1  0.20173893  0.40673299  0.00639321  1
  Li  Li9  1  0.20172950  0.79500418  0.50633747  1
  Li  Li10  1  -0.07339193  0.46148664  0.67303146  1
  Li  Li11  1  -0.07338688  0.46491847  0.17305581  1
  Li  Li12  1  0.86840295  0.74004932  0.33970574  1
  Li  Li13  1  0.86840150  0.12835110  0.83964736  1
  Li  Li14  1  0.20518729  0.40672513  0.50637193  1
  Li  Li15  1  0.87185331  0.74005809  0.83969053  1
  Li  Li16  1  0.25995485  0.12815803  0.33968153  1
  Li  Li17  1  0.25995423  0.13160154  0.83969911  1
  Br  Br18  1  0.09223193  0.54463881  0.43308460  1
  Br  Br19  1  0.09213594  0.54754399  0.93311294  1
  Br  Br20  1  0.78869652  0.57443278  0.59975469  1
  Br  Br21  1  0.78570595  0.21144082  0.59926650  1
  Br  Br22  1  0.12189115  0.88095061  0.76595368  1
  Br  Br23  1  0.45522421  0.54761516  0.43261929  1
  Br  Br24  1  0.78577335  0.57451341  0.09978087  1
  Br  Br25  1  0.78856170  0.21427722  0.09927851  1
  Br  Br26  1  0.45243812  0.90784661  0.43312225  1
  Br  Br27  1  0.45238009  0.54478536  0.93262047  1
  Br  Br28  1  0.42557154  0.21130636  0.09972798  1
  Br  Br29  1  0.42547714  0.21421288  0.59976357  1
  Br  Br30  1  0.11911198  0.24119388  0.76645835  1
  Br  Br31  1  0.11904775  0.87811097  0.26595866  1
  Br  Br32  1  0.45535925  0.90775863  0.93309376  1
  Br  Br33  1  0.12203924  0.24110338  0.26642936  1
  Br  Br34  1  0.75890219  0.87797708  0.76643575  1
  Br  Br35  1  0.75881458  0.88087718  0.26646334  1
