# generated using pymatgen
data_LiBr
_symmetry_space_group_name_H-M   'P 1'
_cell_length_a   7.74652923
_cell_length_b   7.74650800
_cell_length_c   13.00909472
_cell_angle_alpha   89.99993090
_cell_angle_beta   90.00001696
_cell_angle_gamma   89.99982138
_symmetry_Int_Tables_number   1
_chemical_formula_structural   LiBr
_chemical_formula_sum   'Li16 Br16'
_cell_volume   780.65691930
_cell_formula_units_Z   16
loop_
 _symmetry_equiv_pos_site_id
 _symmetry_equiv_pos_as_xyz
  1  'x, y, z'
loop_
 _atom_site_type_symbol
 _atom_site_label
 _atom_site_symmetry_multiplicity
 _atom_site_fract_x
 _atom_site_fract_y
 _atom_site_fract_z
 _atom_site_occupancy
  Li  Li0  1  0.81711234  0.81561635  0.70307353  1
  Li  Li1  1  0.31562324  0.81711147  0.95307360  1
  Li  Li2  1  0.18289390  0.81562222  0.20307473  1
  Li  Li3  1  0.18289021  0.18438505  0.70307472  1
  Li  Li4  1  0.68437795  0.18289111  0.95307395  1
  Li  Li5  1  0.18437726  0.31711486  0.95307499  1
  Li  Li6  1  0.81561881  0.68288891  0.95307379  1
  Li  Li7  1  0.68438459  0.81710781  0.45307466  1
  Li  Li8  1  0.31561761  0.18288844  0.45307334  1
  Li  Li9  1  0.68289068  0.68438004  0.20307508  1
  Li  Li10  1  0.18438029  0.68289770  0.45307565  1
  Li  Li11  1  0.31711001  0.31561847  0.20307356  1
  Li  Li12  1  0.81562463  0.31710166  0.45307477  1
  Li  Li13  1  0.68288995  0.31562098  0.70307427  1
  Li  Li14  1  0.31710957  0.68437400  0.70307469  1
  Li  Li15  1  0.81710281  0.18437921  0.20307444  1
  Br  Br16  1  0.25053933  0.56426691  0.07833928  1
  Br  Br17  1  0.06426408  0.25052676  0.32833521  1
  Br  Br18  1  0.74946687  0.56426192  0.57833675  1
  Br  Br19  1  0.74946529  0.43573430  0.07833833  1
  Br  Br20  1  0.93573738  0.74946365  0.32833674  1
  Br  Br21  1  0.43573698  0.75054003  0.32833898  1
  Br  Br22  1  0.56426384  0.24946902  0.32833834  1
  Br  Br23  1  0.93573345  0.25053673  0.82833767  1
  Br  Br24  1  0.06426519  0.74946150  0.82833828  1
  Br  Br25  1  0.24946356  0.93573505  0.57834055  1
  Br  Br26  1  0.43573203  0.24947033  0.82833684  1
  Br  Br27  1  0.75053271  0.06426364  0.57833881  1
  Br  Br28  1  0.56426641  0.75053702  0.82833558  1
  Br  Br29  1  0.24946610  0.06426685  0.07833578  1
  Br  Br30  1  0.75053307  0.93573305  0.07833692  1
  Br  Br31  1  0.25052989  0.43573494  0.57833500  1
