# generated using pymatgen
data_KI
_symmetry_space_group_name_H-M   'P 1'
_cell_length_a   9.81241018
_cell_length_b   4.50810916
_cell_length_c   8.45313828
_cell_angle_alpha   90.00073246
_cell_angle_beta   89.99902089
_cell_angle_gamma   90.00119470
_symmetry_Int_Tables_number   1
_chemical_formula_structural   KI
_chemical_formula_sum   'K4 I4'
_cell_volume   373.92809000
_cell_formula_units_Z   4
loop_
 _symmetry_equiv_pos_site_id
 _symmetry_equiv_pos_as_xyz
  1  'x, y, z'
loop_
 _atom_site_type_symbol
 _atom_site_label
 _atom_site_symmetry_multiplicity
 _atom_site_fract_x
 _atom_site_fract_y
 _atom_site_fract_z
 _atom_site_occupancy
  K  K0  1  0.12408507  0.50171772  0.01933874  1
  K  K1  1  0.62408512  0.49826294  0.01933601  1
  K  K2  1  0.87591092  0.49828076  0.51933876  1
  K  K3  1  0.37591441  0.50173781  0.51933575  1
  I  I4  1  0.62601034  -0.00209636  0.35446049  1
  I  I5  1  0.12600914  0.00212595  0.35446152  1
  I  I6  1  0.37399194  0.00209811  0.85446079  1
  I  I7  1  0.87399307  -0.00212694  0.85446285  1
