# generated using pymatgen
data_LiBr
_symmetry_space_group_name_H-M   'P 1'
_cell_length_a   8.86665209
_cell_length_b   8.86665378
_cell_length_c   11.09450008
_cell_angle_alpha   90.00011009
_cell_angle_beta   89.99996826
_cell_angle_gamma   89.99947350
_symmetry_Int_Tables_number   1
_chemical_formula_structural   LiBr
_chemical_formula_sum   'Li16 Br16'
_cell_volume   872.22223960
_cell_formula_units_Z   16
loop_
 _symmetry_equiv_pos_site_id
 _symmetry_equiv_pos_as_xyz
  1  'x, y, z'
loop_
 _atom_site_type_symbol
 _atom_site_label
 _atom_site_symmetry_multiplicity
 _atom_site_fract_x
 _atom_site_fract_y
 _atom_site_fract_z
 _atom_site_occupancy
  Li  Li0  1  0.65483187  0.19837963  0.11347563  1
  Li  Li1  1  0.30162335  0.15483173  0.38652514  1
  Li  Li2  1  0.65483208  0.69837960  0.13652478  1
  Li  Li3  1  0.34516598  0.80162252  0.11347407  1
  Li  Li4  1  0.69837374  0.84516812  0.38652567  1
  Li  Li5  1  0.80162410  0.15483206  0.36347510  1
  Li  Li6  1  0.19837359  0.84516732  0.36347349  1
  Li  Li7  1  0.30162529  0.65483168  0.86347354  1
  Li  Li8  1  0.69837863  0.34516862  0.86347518  1
  Li  Li9  1  0.84516722  0.30162338  0.61347547  1
  Li  Li10  1  0.19837742  0.34516621  0.88652476  1
  Li  Li11  1  0.15483190  0.69837464  0.61347247  1
  Li  Li12  1  0.80162395  0.65483365  0.88652632  1
  Li  Li13  1  0.15483221  0.19837581  0.63652539  1
  Li  Li14  1  0.84516833  0.80162333  0.63652674  1
  Li  Li15  1  0.34517035  0.30162201  0.13652485  1
  Br  Br16  1  0.53431741  0.28825571  0.30886313  1
  Br  Br17  1  0.21174405  0.03431853  0.19113508  1
  Br  Br18  1  0.53431692  0.78825686  0.94113680  1
  Br  Br19  1  0.46568152  0.71174458  0.30886249  1
  Br  Br20  1  0.78825623  0.96568042  0.19113706  1
  Br  Br21  1  0.71174277  0.03432017  0.55886505  1
  Br  Br22  1  0.28825468  0.96568052  0.55886310  1
  Br  Br23  1  0.21174425  0.53431782  0.05886337  1
  Br  Br24  1  0.78825564  0.46568354  0.05886478  1
  Br  Br25  1  0.96568325  0.21174450  0.80886266  1
  Br  Br26  1  0.28825723  0.46567920  0.69113576  1
  Br  Br27  1  0.03431853  0.78825467  0.80886186  1
  Br  Br28  1  0.71174499  0.53431901  0.69113723  1
  Br  Br29  1  0.03431698  0.28825534  0.44113785  1
  Br  Br30  1  0.96568104  0.71174446  0.44113781  1
  Br  Br31  1  0.46568448  0.21174436  0.94113739  1
