# generated using pymatgen
data_LiBr
_symmetry_space_group_name_H-M   'P 1'
_cell_length_a   8.32779494
_cell_length_b   8.32780325
_cell_length_c   9.15768537
_cell_angle_alpha   89.99977299
_cell_angle_beta   89.99975189
_cell_angle_gamma   90.00001411
_symmetry_Int_Tables_number   1
_chemical_formula_structural   LiBr
_chemical_formula_sum   'Li8 Br8'
_cell_volume   635.10597317
_cell_formula_units_Z   8
loop_
 _symmetry_equiv_pos_site_id
 _symmetry_equiv_pos_as_xyz
  1  'x, y, z'
loop_
 _atom_site_type_symbol
 _atom_site_label
 _atom_site_symmetry_multiplicity
 _atom_site_fract_x
 _atom_site_fract_y
 _atom_site_fract_z
 _atom_site_occupancy
  Li  Li0  1  0.36316303  0.13506766  0.50064703  1
  Li  Li1  1  0.36493202  0.13683845  -0.00064738  1
  Li  Li2  1  0.63683739  0.86493115  0.50064765  1
  Li  Li3  1  0.86493159  0.36316241  0.49935363  1
  Li  Li4  1  0.13506902  0.63683596  0.49935175  1
  Li  Li5  1  0.13683608  0.63506967  0.00064641  1
  Li  Li6  1  0.63506753  0.86316281  -0.00064743  1
  Li  Li7  1  0.86316356  0.36493132  0.00064810  1
  Br  Br8  1  0.84050073  0.65803209  0.49908685  1
  Br  Br9  1  0.84196637  0.65949908  0.00091280  1
  Br  Br10  1  0.15949993  0.34196729  0.49908816  1
  Br  Br11  1  0.34196813  0.84049923  0.50091123  1
  Br  Br12  1  0.65803200  0.15949917  0.50091389  1
  Br  Br13  1  0.65950074  0.15803200  0.99908870  1
  Br  Br14  1  0.15803290  0.34050187  0.00091208  1
  Br  Br15  1  0.34049896  0.84196985  0.99908652  1
