# generated using pymatgen
data_LiI
_symmetry_space_group_name_H-M   'P 1'
_cell_length_a   12.01687148
_cell_length_b   6.01760286
_cell_length_c   6.03372161
_cell_angle_alpha   89.99228166
_cell_angle_beta   90.00056138
_cell_angle_gamma   89.99980813
_symmetry_Int_Tables_number   1
_chemical_formula_structural   LiI
_chemical_formula_sum   'Li8 I8'
_cell_volume   436.31505996
_cell_formula_units_Z   8
loop_
 _symmetry_equiv_pos_site_id
 _symmetry_equiv_pos_as_xyz
  1  'x, y, z'
loop_
 _atom_site_type_symbol
 _atom_site_label
 _atom_site_symmetry_multiplicity
 _atom_site_fract_x
 _atom_site_fract_y
 _atom_site_fract_z
 _atom_site_occupancy
  Li  Li0  1  0.62426487  0.25056848  0.49609904  1
  Li  Li1  1  0.62426480  0.74943398  -0.00390380  1
  Li  Li2  1  0.12426423  0.24943238  0.50390630  1
  Li  Li3  1  0.87573548  0.24943004  -0.00390203  1
  Li  Li4  1  0.37573494  0.25056594  0.00390304  1
  Li  Li5  1  0.87573547  0.75056926  0.49609594  1
  Li  Li6  1  0.12426432  0.75056664  0.00390655  1
  Li  Li7  1  0.37573550  0.74943348  0.50390106  1
  I  I8  1  0.62521655  0.75039827  0.50004326  1
  I  I9  1  0.62521647  0.24960180  0.00004183  1
  I  I10  1  0.12521611  0.74960197  0.49995588  1
  I  I11  1  0.87478422  0.74960206  0.00004142  1
  I  I12  1  0.37478343  0.75039791  -0.00004326  1
  I  I13  1  0.87478404  0.25039806  0.50004253  1
  I  I14  1  0.12521611  0.25039777  -0.00004357  1
  I  I15  1  0.37478346  0.24960198  0.49995580  1
