# generated using pymatgen
data_NaBr
_symmetry_space_group_name_H-M   'P 1'
_cell_length_a   11.84793566
_cell_length_b   11.85722771
_cell_length_c   7.80444356
_cell_angle_alpha   90.00006498
_cell_angle_beta   90.00005700
_cell_angle_gamma   90.00000282
_symmetry_Int_Tables_number   1
_chemical_formula_structural   NaBr
_chemical_formula_sum   'Na16 Br16'
_cell_volume   1096.39688192
_cell_formula_units_Z   16
loop_
 _symmetry_equiv_pos_site_id
 _symmetry_equiv_pos_as_xyz
  1  'x, y, z'
loop_
 _atom_site_type_symbol
 _atom_site_label
 _atom_site_symmetry_multiplicity
 _atom_site_fract_x
 _atom_site_fract_y
 _atom_site_fract_z
 _atom_site_occupancy
  Na  Na0  1  0.63524311  0.45006884  0.61333520  1
  Na  Na1  1  0.95007394  0.63523898  0.86180148  1
  Na  Na2  1  0.36475729  0.45006931  0.11333601  1
  Na  Na3  1  0.36475579  0.54993167  0.61333661  1
  Na  Na4  1  0.04992658  0.36475994  0.86180351  1
  Na  Na5  1  0.54992674  0.13524012  0.86180194  1
  Na  Na6  1  0.45007424  0.86476123  0.86180302  1
  Na  Na7  1  0.04992678  0.63524010  0.36180196  1
  Na  Na8  1  0.95007425  0.36476121  0.36180294  1
  Na  Na9  1  0.86475576  0.04993167  0.11333657  1
  Na  Na10  1  0.54992657  0.86476001  0.36180349  1
  Na  Na11  1  0.13524313  0.95006878  0.11333526  1
  Na  Na12  1  0.45007391  0.13523907  0.36180158  1
  Na  Na13  1  0.86475720  0.95006930  0.61333616  1
  Na  Na14  1  0.13524482  0.04993223  0.61333576  1
  Na  Na15  1  0.63524486  0.54993223  0.11333582  1
  Br  Br16  1  0.34606245  0.94802631  0.54145901  1
  Br  Br17  1  0.44783045  0.34616607  0.79241369  1
  Br  Br18  1  0.65393686  0.94802745  0.04146165  1
  Br  Br19  1  0.65393675  0.05197189  0.54146231  1
  Br  Br20  1  0.55216740  0.65383282  0.79241743  1
  Br  Br21  1  0.05216889  0.84616653  0.79241450  1
  Br  Br22  1  0.94783209  0.15383316  0.79241677  1
  Br  Br23  1  0.55216894  0.34616650  0.29241443  1
  Br  Br24  1  0.44783214  0.65383314  0.29241685  1
  Br  Br25  1  0.15393678  0.55197188  0.04146238  1
  Br  Br26  1  0.05216749  0.15383289  0.29241728  1
  Br  Br27  1  0.84606244  0.44802625  0.04145892  1
  Br  Br28  1  0.94783049  0.84616615  0.29241382  1
  Br  Br29  1  0.15393679  0.44802753  0.54146182  1
  Br  Br30  1  0.84606249  0.55197340  0.54145934  1
  Br  Br31  1  0.34606257  0.05197333  0.04145948  1
