# generated using pymatgen
data_LiBr
_symmetry_space_group_name_H-M   'P 1'
_cell_length_a   3.86505992
_cell_length_b   6.72849877
_cell_length_c   7.24650237
_cell_angle_alpha   90.00007794
_cell_angle_beta   119.51333439
_cell_angle_gamma   89.99989260
_symmetry_Int_Tables_number   1
_chemical_formula_structural   LiBr
_chemical_formula_sum   'Li4 Br4'
_cell_volume   163.99946202
_cell_formula_units_Z   4
loop_
 _symmetry_equiv_pos_site_id
 _symmetry_equiv_pos_as_xyz
  1  'x, y, z'
loop_
 _atom_site_type_symbol
 _atom_site_label
 _atom_site_symmetry_multiplicity
 _atom_site_fract_x
 _atom_site_fract_y
 _atom_site_fract_z
 _atom_site_occupancy
  Li  Li0  1  0.02768294  0.24906041  0.64167018  1
  Li  Li1  1  0.52766681  0.74909119  0.64165938  1
  Li  Li2  1  0.02763530  0.75091215  0.14165815  1
  Li  Li3  1  0.52764686  0.25094384  0.14166850  1
  Br  Br4  1  0.27420512  0.91672814  0.88966646  1
  Br  Br5  1  0.77420350  0.41672895  0.88966235  1
  Br  Br6  1  0.27420127  0.08326737  0.38966222  1
  Br  Br7  1  0.77420335  0.58326795  0.38966631  1
