# generated using pymatgen
data_LiI
_symmetry_space_group_name_H-M   'P 1'
_cell_length_a   10.94897794
_cell_length_b   10.94953233
_cell_length_c   4.37912131
_cell_angle_alpha   89.99997936
_cell_angle_beta   90.00003126
_cell_angle_gamma   120.01094073
_symmetry_Int_Tables_number   1
_chemical_formula_structural   LiI
_chemical_formula_sum   'Li6 I6'
_cell_volume   454.60987974
_cell_formula_units_Z   6
loop_
 _symmetry_equiv_pos_site_id
 _symmetry_equiv_pos_as_xyz
  1  'x, y, z'
loop_
 _atom_site_type_symbol
 _atom_site_label
 _atom_site_symmetry_multiplicity
 _atom_site_fract_x
 _atom_site_fract_y
 _atom_site_fract_z
 _atom_site_occupancy
  Li  Li0  1  0.54027983  0.85754900  0.86466445  1
  Li  Li1  1  0.68274117  0.54031784  0.53110264  1
  Li  Li2  1  0.31725884  0.45968198  0.53110261  1
  Li  Li3  1  0.85756111  0.31727854  0.19782096  1
  Li  Li4  1  0.14243903  0.68272148  0.19782193  1
  Li  Li5  1  0.45972008  0.14245102  0.86466450  1
  I  I6  1  0.14687453  0.43134536  0.05536056  1
  I  I7  1  0.71550760  0.14685449  0.72212181  1
  I  I8  1  0.28449229  0.85314562  0.72212264  1
  I  I9  1  0.43127500  0.28444484  0.38904690  1
  I  I10  1  0.56872493  0.71555511  0.38904754  1
  I  I11  1  0.85312557  0.56865472  0.05536099  1
