# generated using pymatgen
data_NaCl
_symmetry_space_group_name_H-M   'P 1'
_cell_length_a   5.19946164
_cell_length_b   5.26425015
_cell_length_c   7.28823981
_cell_angle_alpha   90.00035009
_cell_angle_beta   69.16425041
_cell_angle_gamma   90.00014765
_symmetry_Int_Tables_number   1
_chemical_formula_structural   NaCl
_chemical_formula_sum   'Na4 Cl4'
_cell_volume   186.44260046
_cell_formula_units_Z   4
loop_
 _symmetry_equiv_pos_site_id
 _symmetry_equiv_pos_as_xyz
  1  'x, y, z'
loop_
 _atom_site_type_symbol
 _atom_site_label
 _atom_site_symmetry_multiplicity
 _atom_site_fract_x
 _atom_site_fract_y
 _atom_site_fract_z
 _atom_site_occupancy
  Na  Na0  1  0.90169649  0.37727971  0.68103259  1
  Na  Na1  1  0.40169647  0.87727969  0.68103260  1
  Na  Na2  1  0.90171057  0.62271979  0.18103064  1
  Na  Na3  1  0.40171060  0.12271978  0.18103062  1
  Cl  Cl4  1  0.48878635  0.62273452  0.00790540  1
  Cl  Cl5  1  0.98878634  0.12273451  0.00790540  1
  Cl  Cl6  1  0.48877447  0.37726602  0.50790838  1
  Cl  Cl7  1  0.98877451  0.87726598  0.50790838  1
