# generated using pymatgen
data_LiBr
_symmetry_space_group_name_H-M   'P 1'
_cell_length_a   11.41388314
_cell_length_b   11.41389683
_cell_length_c   7.97731699
_cell_angle_alpha   90.00848526
_cell_angle_beta   89.99146323
_cell_angle_gamma   120.00681444
_symmetry_Int_Tables_number   1
_chemical_formula_structural   LiBr
_chemical_formula_sum   'Li18 Br18'
_cell_volume   899.96374336
_cell_formula_units_Z   18
loop_
 _symmetry_equiv_pos_site_id
 _symmetry_equiv_pos_as_xyz
  1  'x, y, z'
loop_
 _atom_site_type_symbol
 _atom_site_label
 _atom_site_symmetry_multiplicity
 _atom_site_fract_x
 _atom_site_fract_y
 _atom_site_fract_z
 _atom_site_occupancy
  Li  Li0  1  0.59503595  0.79744675  0.44517602  1
  Li  Li1  1  0.59505913  0.79762955  0.94517244  1
  Li  Li2  1  0.53590423  0.07162911  0.61190838  1
  Li  Li3  1  0.53571335  0.46407685  0.61191323  1
  Li  Li4  1  0.86936904  0.13099086  0.77850232  1
  Li  Li5  1  0.20255679  0.79760196  0.44518453  1
  Li  Li6  1  0.53569920  0.07162169  0.11190624  1
  Li  Li7  1  0.53592358  0.46428573  0.11191308  1
  Li  Li8  1  0.20237126  0.40494079  0.44517222  1
  Li  Li9  1  0.20239777  0.79744513  0.94518464  1
  Li  Li10  1  -0.07162689  0.46409688  0.11190947  1
  Li  Li11  1  -0.07161980  0.46430162  0.61190861  1
  Li  Li12  1  0.86896175  0.73833282  0.77847674  1
  Li  Li13  1  0.86900802  0.13063099  0.27850254  1
  Li  Li14  1  0.20255400  0.40496460  0.94517661  1
  Li  Li15  1  0.86933682  0.73834882  0.27848880  1
  Li  Li16  1  0.26165021  0.13066213  0.77848684  1
  Li  Li17  1  0.26166514  0.13103660  0.27847524  1
  Br  Br18  1  0.78694042  0.21312464  0.03743076  1
  Br  Br19  1  0.78692300  0.57377941  0.53735846  1
  Br  Br20  1  0.12025043  0.87976098  0.20401490  1
  Br  Br21  1  0.75949895  0.87974652  0.20396542  1
  Br  Br22  1  0.45355081  0.90715484  0.37072924  1
  Br  Br23  1  0.78687474  0.57380237  0.03736956  1
  Br  Br24  1  0.75951140  0.87975630  0.70394896  1
  Br  Br25  1  0.12025356  0.24050132  0.70396607  1
  Br  Br26  1  0.42621886  0.21307589  0.03735718  1
  Br  Br27  1  0.42619667  0.21312531  0.53736799  1
  Br  Br28  1  0.12023750  0.87974888  0.70401392  1
  Br  Br29  1  0.12024251  0.24048783  0.20394913  1
  Br  Br30  1  0.09285195  0.54639936  0.37072424  1
  Br  Br31  1  0.09284669  0.54645044  0.87073032  1
  Br  Br32  1  0.78687611  0.21305973  0.53743124  1
  Br  Br33  1  0.45356293  0.54639700  0.87077532  1
  Br  Br34  1  0.45360326  0.54643763  0.37077429  1
  Br  Br35  1  0.45360063  0.90714871  0.87072260  1
