# generated using pymatgen
data_LiBr
_symmetry_space_group_name_H-M   'P 1'
_cell_length_a   10.05322948
_cell_length_b   10.05323120
_cell_length_c   8.45255939
_cell_angle_alpha   89.99993290
_cell_angle_beta   89.99993553
_cell_angle_gamma   89.99999666
_symmetry_Int_Tables_number   1
_chemical_formula_structural   LiBr
_chemical_formula_sum   'Li16 Br16'
_cell_volume   854.27854177
_cell_formula_units_Z   16
loop_
 _symmetry_equiv_pos_site_id
 _symmetry_equiv_pos_as_xyz
  1  'x, y, z'
loop_
 _atom_site_type_symbol
 _atom_site_label
 _atom_site_symmetry_multiplicity
 _atom_site_fract_x
 _atom_site_fract_y
 _atom_site_fract_z
 _atom_site_occupancy
  Li  Li0  1  0.33097437  0.99993243  0.64947535  1
  Li  Li1  1  0.49993295  0.33097362  0.89947534  1
  Li  Li2  1  0.66902649  0.99993212  0.14947776  1
  Li  Li3  1  0.66902590  0.00006742  0.64947742  1
  Li  Li4  1  0.50006703  0.66902604  0.89947751  1
  Li  Li5  1  0.00006758  0.83097418  0.89947518  1
  Li  Li6  1  0.99993234  0.16902630  0.89947743  1
  Li  Li7  1  0.50006700  0.33097404  0.39947517  1
  Li  Li8  1  0.49993259  0.66902567  0.39947754  1
  Li  Li9  1  0.16902586  0.50006777  0.14947748  1
  Li  Li10  1  0.00006706  0.16902624  0.39947747  1
  Li  Li11  1  0.83097389  0.49993263  0.14947535  1
  Li  Li12  1  0.99993340  0.83097406  0.39947537  1
  Li  Li13  1  0.16902596  0.49993221  0.64947771  1
  Li  Li14  1  0.83097364  0.50006793  0.64947526  1
  Li  Li15  1  0.33097384  0.00006738  0.14947532  1
  Br  Br16  1  0.80831895  0.00002831  0.39940242  1
  Br  Br17  1  0.50002881  0.80831850  0.64940254  1
  Br  Br18  1  0.19168142  0.00002910  0.89940112  1
  Br  Br19  1  0.19168150  -0.00002822  0.39940109  1
  Br  Br20  1  0.49997138  0.19168130  0.64940112  1
  Br  Br21  1  -0.00002920  0.30831889  0.64940235  1
  Br  Br22  1  0.00002901  0.69168132  0.64940120  1
  Br  Br23  1  0.49997114  0.80831832  0.14940233  1
  Br  Br24  1  0.50002906  0.19168117  0.14940108  1
  Br  Br25  1  0.69168140  0.49997142  0.89940116  1
  Br  Br26  1  -0.00002886  0.69168148  0.14940082  1
  Br  Br27  1  0.30831866  0.50002817  0.89940255  1
  Br  Br28  1  0.00002868  0.30831901  0.14940221  1
  Br  Br29  1  0.69168112  0.50002848  0.39940114  1
  Br  Br30  1  0.30831841  0.49997136  0.39940245  1
  Br  Br31  1  0.80831861  -0.00002867  0.89940247  1
