# generated using pymatgen
data_LiBr
_symmetry_space_group_name_H-M   'P 1'
_cell_length_a   8.46001660
_cell_length_b   4.23408181
_cell_length_c   5.68104810
_cell_angle_alpha   90.00000496
_cell_angle_beta   89.99998929
_cell_angle_gamma   89.99807329
_symmetry_Int_Tables_number   1
_chemical_formula_structural   LiBr
_chemical_formula_sum   'Li4 Br4'
_cell_volume   203.49742917
_cell_formula_units_Z   4
loop_
 _symmetry_equiv_pos_site_id
 _symmetry_equiv_pos_as_xyz
  1  'x, y, z'
loop_
 _atom_site_type_symbol
 _atom_site_label
 _atom_site_symmetry_multiplicity
 _atom_site_fract_x
 _atom_site_fract_y
 _atom_site_fract_z
 _atom_site_occupancy
  Li  Li0  1  0.62588641  0.25158727  0.56567583  1
  Li  Li1  1  0.12588658  0.24841243  0.56567534  1
  Li  Li2  1  0.37411358  0.74841271  0.06567575  1
  Li  Li3  1  0.87411341  0.75158744  0.06567483  1
  Br  Br4  1  0.12442439  0.74883105  0.81564349  1
  Br  Br5  1  0.62442374  0.75116887  0.81564356  1
  Br  Br6  1  0.87557563  0.25116898  0.31564344  1
  Br  Br7  1  0.37557625  0.24883126  0.31564363  1
