# generated using pymatgen
data_KI
_symmetry_space_group_name_H-M   'P 1'
_cell_length_a   8.54092407
_cell_length_b   5.00020824
_cell_length_c   8.69345604
_cell_angle_alpha   89.99992246
_cell_angle_beta   90.00026016
_cell_angle_gamma   90.00017225
_symmetry_Int_Tables_number   1
_chemical_formula_structural   KI
_chemical_formula_sum   'K4 I4'
_cell_volume   371.26620146
_cell_formula_units_Z   4
loop_
 _symmetry_equiv_pos_site_id
 _symmetry_equiv_pos_as_xyz
  1  'x, y, z'
loop_
 _atom_site_type_symbol
 _atom_site_label
 _atom_site_symmetry_multiplicity
 _atom_site_fract_x
 _atom_site_fract_y
 _atom_site_fract_z
 _atom_site_occupancy
  K  K0  1  0.24899357  0.75318026  0.55955333  1
  K  K1  1  0.74899350  0.24681994  0.55955328  1
  K  K2  1  0.75100660  0.24682666  0.05955006  1
  K  K3  1  0.25100658  0.75317308  0.05954998  1
  I  I4  1  0.58419838  0.74734252  0.80946570  1
  I  I5  1  0.08419833  0.25265768  0.80946568  1
  I  I6  1  0.41580149  0.25265672  0.30946453  1
  I  I7  1  0.91580155  0.74734315  0.30946459  1
