# generated using pymatgen
data_LiBr
_symmetry_space_group_name_H-M   'P 1'
_cell_length_a   11.45640946
_cell_length_b   11.45636451
_cell_length_c   7.95545406
_cell_angle_alpha   90.00041008
_cell_angle_beta   89.99964708
_cell_angle_gamma   119.99428591
_symmetry_Int_Tables_number   1
_chemical_formula_structural   LiBr
_chemical_formula_sum   'Li18 Br18'
_cell_volume   904.30713558
_cell_formula_units_Z   18
loop_
 _symmetry_equiv_pos_site_id
 _symmetry_equiv_pos_as_xyz
  1  'x, y, z'
loop_
 _atom_site_type_symbol
 _atom_site_label
 _atom_site_symmetry_multiplicity
 _atom_site_fract_x
 _atom_site_fract_y
 _atom_site_fract_z
 _atom_site_occupancy
  Li  Li0  1  0.59419849  0.79854127  0.84950984  1
  Li  Li1  1  0.59417697  0.79566609  0.34951183  1
  Li  Li2  1  0.53462427  0.07249120  0.01614412  1
  Li  Li3  1  0.53786469  0.46538255  0.01614776  1
  Li  Li4  1  0.86799511  0.12879702  0.18284289  1
  Li  Li5  1  0.20147212  0.79565620  0.84951024  1
  Li  Li6  1  0.53784391  0.07249449  0.51615301  1
  Li  Li7  1  0.53461741  0.46213409  0.51614929  1
  Li  Li8  1  0.20433328  0.40582250  0.84950888  1
  Li  Li9  1  0.20434364  0.79852634  0.34950983  1
  Li  Li10  1  -0.07249265  0.46537522  0.51614683  1
  Li  Li11  1  -0.07249496  0.46215621  0.01615665  1
  Li  Li12  1  0.87116508  0.73920117  0.18286643  1
  Li  Li13  1  0.87120275  0.13200537  0.68284358  1
  Li  Li14  1  0.20145903  0.40580124  0.34950808  1
  Li  Li15  1  0.86800081  0.73919190  0.68286204  1
  Li  Li16  1  0.26080798  0.13199900  0.18286426  1
  Li  Li17  1  0.26079866  0.12883477  0.68286885  1
  Br  Br18  1  0.12185733  0.88094627  0.10962064  1
  Br  Br19  1  0.12185258  0.24088195  0.60959963  1
  Br  Br20  1  0.45246391  0.54492031  0.27626103  1
  Br  Br21  1  0.09247948  0.54756320  0.27622170  1
  Br  Br22  1  0.78571500  0.57421698  0.44290562  1
  Br  Br23  1  0.11902538  0.24087255  0.10958046  1
  Br  Br24  1  0.09247454  0.54491754  0.77623077  1
  Br  Br25  1  0.45243742  0.90752077  0.77622015  1
  Br  Br26  1  0.75911809  0.87814736  0.10960176  1
  Br  Br27  1  0.75912910  0.88097503  0.60958121  1
  Br  Br28  1  0.45508001  0.54753695  0.77626210  1
  Br  Br29  1  0.45508299  0.90752696  0.27623077  1
  Br  Br30  1  0.42577232  0.21150124  0.44292159  1
  Br  Br31  1  0.42578305  0.21428540  0.94290712  1
  Br  Br32  1  0.11905390  0.87814314  0.60962066  1
  Br  Br33  1  0.78574568  0.21148557  0.94293320  1
  Br  Br34  1  0.78851406  0.21425436  0.44293331  1
  Br  Br35  1  0.78849858  0.57422781  0.94292093  1
