# generated using pymatgen
data_NaI
_symmetry_space_group_name_H-M   'P 1'
_cell_length_a   7.19794362
_cell_length_b   5.02797037
_cell_length_c   8.83198834
_cell_angle_alpha   90.00022010
_cell_angle_beta   144.80116581
_cell_angle_gamma   89.99990526
_symmetry_Int_Tables_number   1
_chemical_formula_structural   NaI
_chemical_formula_sum   'Na2 I2'
_cell_volume   184.24488130
_cell_formula_units_Z   2
loop_
 _symmetry_equiv_pos_site_id
 _symmetry_equiv_pos_as_xyz
  1  'x, y, z'
loop_
 _atom_site_type_symbol
 _atom_site_label
 _atom_site_symmetry_multiplicity
 _atom_site_fract_x
 _atom_site_fract_y
 _atom_site_fract_z
 _atom_site_occupancy
  Na  Na0  1  0.98736989  0.25382739  0.26196863  1
  Na  Na1  1  0.98736644  0.74616709  0.76196651  1
  I  I2  1  0.24111763  0.24659259  0.76182230  1
  I  I3  1  0.24111846  0.75341293  0.26182166  1
