# generated using pymatgen
data_LiBr
_symmetry_space_group_name_H-M   'P 1'
_cell_length_a   5.47746546
_cell_length_b   5.52535272
_cell_length_c   5.51291149
_cell_angle_alpha   90.00004587
_cell_angle_beta   89.99996489
_cell_angle_gamma   90.00000273
_symmetry_Int_Tables_number   1
_chemical_formula_structural   LiBr
_chemical_formula_sum   'Li4 Br4'
_cell_volume   166.84787326
_cell_formula_units_Z   4
loop_
 _symmetry_equiv_pos_site_id
 _symmetry_equiv_pos_as_xyz
  1  'x, y, z'
loop_
 _atom_site_type_symbol
 _atom_site_label
 _atom_site_symmetry_multiplicity
 _atom_site_fract_x
 _atom_site_fract_y
 _atom_site_fract_z
 _atom_site_occupancy
  Li  Li0  1  0.49845571  0.75135829  0.31178720  1
  Li  Li1  1  -0.00154604  0.24864150  0.31178648  1
  Li  Li2  1  0.50154062  0.24864326  0.81179565  1
  Li  Li3  1  0.00153918  0.75135662  0.81179627  1
  Br  Br4  1  0.00042015  0.25017459  0.81092028  1
  Br  Br5  1  0.50042031  0.74982558  0.81092083  1
  Br  Br6  1  -0.00041511  0.74982773  0.31092130  1
  Br  Br7  1  0.49958519  0.25017243  0.31092079  1
