# generated using pymatgen
data_KI
_symmetry_space_group_name_H-M   'P 1'
_cell_length_a   8.69913237
_cell_length_b   5.07850265
_cell_length_c   8.86387547
_cell_angle_alpha   90.00010352
_cell_angle_beta   109.34006194
_cell_angle_gamma   89.99993069
_symmetry_Int_Tables_number   1
_chemical_formula_structural   KI
_chemical_formula_sum   'K4 I4'
_cell_volume   369.49555539
_cell_formula_units_Z   4
loop_
 _symmetry_equiv_pos_site_id
 _symmetry_equiv_pos_as_xyz
  1  'x, y, z'
loop_
 _atom_site_type_symbol
 _atom_site_label
 _atom_site_symmetry_multiplicity
 _atom_site_fract_x
 _atom_site_fract_y
 _atom_site_fract_z
 _atom_site_occupancy
  K  K0  1  0.85635296  0.25015535  0.68299393  1
  K  K1  1  0.35635270  0.75015524  0.68299375  1
  K  K2  1  0.85635254  0.74984364  0.18299294  1
  K  K3  1  0.35635270  0.24984537  0.18299321  1
  I  I4  1  0.60582894  0.25032229  0.93214059  1
  I  I5  1  0.10582810  0.75032289  0.93213968  1
  I  I6  1  0.60582807  0.74967798  0.43213986  1
  I  I7  1  0.10582896  0.24967723  0.43214060  1
