# generated using pymatgen
data_NaI
_symmetry_space_group_name_H-M   'P 1'
_cell_length_a   9.20088302
_cell_length_b   6.51136922
_cell_length_c   4.66249524
_cell_angle_alpha   89.99626931
_cell_angle_beta   90.00193137
_cell_angle_gamma   89.99929980
_symmetry_Int_Tables_number   1
_chemical_formula_structural   NaI
_chemical_formula_sum   'Na4 I4'
_cell_volume   279.33170469
_cell_formula_units_Z   4
loop_
 _symmetry_equiv_pos_site_id
 _symmetry_equiv_pos_as_xyz
  1  'x, y, z'
loop_
 _atom_site_type_symbol
 _atom_site_label
 _atom_site_symmetry_multiplicity
 _atom_site_fract_x
 _atom_site_fract_y
 _atom_site_fract_z
 _atom_site_occupancy
  Na  Na0  1  0.87377418  0.74981823  0.30190732  1
  Na  Na1  1  0.37377438  0.75018106  0.30190661  1
  Na  Na2  1  0.12622471  0.25018150  0.80203639  1
  Na  Na3  1  0.62622453  0.24981861  0.80203725  1
  I  I4  1  0.62420704  0.75001150  0.80226529  1
  I  I5  1  0.12420712  0.74998874  0.80226411  1
  I  I6  1  0.37579405  0.24998898  0.30231124  1
  I  I7  1  0.87579400  0.25001138  0.30231258  1
