# generated using pymatgen
data_LiBr
_symmetry_space_group_name_H-M   'P 1'
_cell_length_a   6.38737092
_cell_length_b   6.70871485
_cell_length_c   3.86711577
_cell_angle_alpha   90.00004471
_cell_angle_beta   90.00001826
_cell_angle_gamma   89.99980502
_symmetry_Int_Tables_number   1
_chemical_formula_structural   LiBr
_chemical_formula_sum   'Li4 Br4'
_cell_volume   165.70997181
_cell_formula_units_Z   4
loop_
 _symmetry_equiv_pos_site_id
 _symmetry_equiv_pos_as_xyz
  1  'x, y, z'
loop_
 _atom_site_type_symbol
 _atom_site_label
 _atom_site_symmetry_multiplicity
 _atom_site_fract_x
 _atom_site_fract_y
 _atom_site_fract_z
 _atom_site_occupancy
  Li  Li0  1  0.00213648  0.75033983  0.35048245  1
  Li  Li1  1  0.50213738  0.74965938  0.35048252  1
  Li  Li2  1  -0.00213730  0.24966263  0.85047248  1
  Li  Li3  1  0.49786256  0.25033818  0.85047117  1
  Br  Br4  1  0.74988163  0.41726627  0.34968690  1
  Br  Br5  1  0.24987913  0.08272907  0.34968704  1
  Br  Br6  1  0.25011840  0.58273590  0.84969389  1
  Br  Br7  1  0.75012172  0.91726874  0.84969371  1
