# generated using pymatgen
data_LiBr
_symmetry_space_group_name_H-M   'P 1'
_cell_length_a   11.93202258
_cell_length_b   11.93203171
_cell_length_c   7.28201273
_cell_angle_alpha   89.99941069
_cell_angle_beta   90.00055297
_cell_angle_gamma   120.00116230
_symmetry_Int_Tables_number   1
_chemical_formula_structural   LiBr
_chemical_formula_sum   'Li18 Br18'
_cell_volume   897.85342559
_cell_formula_units_Z   18
loop_
 _symmetry_equiv_pos_site_id
 _symmetry_equiv_pos_as_xyz
  1  'x, y, z'
loop_
 _atom_site_type_symbol
 _atom_site_label
 _atom_site_symmetry_multiplicity
 _atom_site_fract_x
 _atom_site_fract_y
 _atom_site_fract_z
 _atom_site_occupancy
  Li  Li0  1  0.49971572  0.37480665  0.51277065  1
  Li  Li1  1  0.49969657  0.12490480  0.01277774  1
  Li  Li2  1  0.95852004  0.16694004  0.67934072  1
  Li  Li3  1  0.20842339  0.04147709  0.67932748  1
  Li  Li4  1  0.29189167  0.45824197  0.84599041  1
  Li  Li5  1  0.62520408  0.12492096  0.51276184  1
  Li  Li6  1  0.20842755  0.16695182  0.17933728  1
  Li  Li7  1  0.95852510  0.79157820  0.17932756  1
  Li  Li8  1  0.87509510  0.50030358  0.51277098  1
  Li  Li9  1  0.87508004  0.37479822  0.01276053  1
  Li  Li10  1  0.83305616  0.04147747  0.17934085  1
  Li  Li11  1  0.83304706  0.79157166  0.67933700  1
  Li  Li12  1  0.54177533  0.83367371  0.84599146  1
  Li  Li13  1  0.54175600  0.70810621  0.34598588  1
  Li  Li14  1  0.62519386  0.50028667  0.01277054  1
  Li  Li15  1  0.29188387  0.83364098  0.34599956  1
  Li  Li16  1  0.16635815  0.70811631  0.84599985  1
  Li  Li17  1  0.16632692  0.45822230  0.34599407  1
  Br  Br18  1  0.50041612  0.87505385  0.51193266  1
  Br  Br19  1  0.50041556  0.62537005  0.01191304  1
  Br  Br20  1  0.45828263  0.16625055  0.67869758  1
  Br  Br21  1  0.70796765  0.54171678  0.67870136  1
  Br  Br22  1  0.79162917  -0.04130068  0.84524306  1
  Br  Br23  1  0.12495353  0.62535802  0.51194301  1
  Br  Br24  1  0.70796523  0.16624666  0.17867841  1
  Br  Br25  1  0.45828321  0.29203449  0.17870039  1
  Br  Br26  1  0.37463082  0.49958415  0.51191559  1
  Br  Br27  1  0.37464122  0.87504713  0.01194249  1
  Br  Br28  1  0.83375061  0.54171940  0.17869647  1
  Br  Br29  1  0.83375551  0.29203539  0.67867816  1
  Br  Br30  1  0.04130255  0.83291914  0.84522262  1
  Br  Br31  1  0.04129879  0.20836834  0.34524209  1
  Br  Br32  1  0.12494676  0.49958453  0.01193548  1
  Br  Br33  1  0.79161887  0.83291542  0.34523700  1
  Br  Br34  1  0.16708272  0.20838013  0.84523733  1
  Br  Br35  1  0.16708240  -0.04130198  0.34522332  1
