# generated using pymatgen
data_LiBr
_symmetry_space_group_name_H-M   'P 1'
_cell_length_a   11.96434733
_cell_length_b   11.96434159
_cell_length_c   7.21703598
_cell_angle_alpha   89.98868046
_cell_angle_beta   90.01125553
_cell_angle_gamma   119.99415464
_symmetry_Int_Tables_number   1
_chemical_formula_structural   LiBr
_chemical_formula_sum   'Li18 Br18'
_cell_volume   894.73182445
_cell_formula_units_Z   18
loop_
 _symmetry_equiv_pos_site_id
 _symmetry_equiv_pos_as_xyz
  1  'x, y, z'
loop_
 _atom_site_type_symbol
 _atom_site_label
 _atom_site_symmetry_multiplicity
 _atom_site_fract_x
 _atom_site_fract_y
 _atom_site_fract_z
 _atom_site_occupancy
  Li  Li0  1  0.37565855  0.87544397  0.18897627  1
  Li  Li1  1  0.37565097  0.50018286  0.68923060  1
  Li  Li2  1  0.45807954  0.29083642  0.35591642  1
  Li  Li3  1  0.83290409  0.54207679  0.35588384  1
  Li  Li4  1  0.79107880  0.83315081  0.52271509  1
  Li  Li5  1  0.12439906  0.50008115  0.18906511  1
  Li  Li6  1  0.83283932  0.29088820  0.85597207  1
  Li  Li7  1  0.45792342  0.16709611  0.85588555  1
  Li  Li8  1  0.49981747  0.62434945  0.18923033  1
  Li  Li9  1  0.49991828  0.87560094  0.68906301  1
  Li  Li10  1  0.70916414  0.54192040  0.85591523  1
  Li  Li11  1  0.70911106  0.16716135  0.35597279  1
  Li  Li12  1  0.16678570  0.95794816  0.52277782  1
  Li  Li13  1  0.16685091  0.20892185  0.02271425  1
  Li  Li14  1  0.12455607  0.62434199  0.68897822  1
  Li  Li15  1  0.79121446  0.95792933  0.02266949  1
  Li  Li16  1  0.04207052  0.20878647  0.52266931  1
  Li  Li17  1  0.04205150  0.83321385  0.02277871  1
  Br  Br18  1  0.50026820  0.12504131  0.19036104  1
  Br  Br19  1  0.50019665  0.37518450  0.69045667  1
  Br  Br20  1  0.20842437  0.16679030  0.35769029  1
  Br  Br21  1  -0.04157486  0.79163497  0.35777757  1
  Br  Br22  1  0.54151529  0.70823158  0.52399837  1
  Br  Br23  1  0.87490517  0.37519573  0.19048270  1
  Br  Br24  1  -0.04156232  0.16687154  0.85770767  1
  Br  Br25  1  0.20836539  0.04157387  0.85777771  1
  Br  Br26  1  0.62481517  0.49980273  0.19045605  1
  Br  Br27  1  0.62480386  0.12509463  0.69048385  1
  Br  Br28  1  0.83321004  0.79157536  0.85768971  1
  Br  Br29  1  0.83312777  0.04156314  0.35770747  1
  Br  Br30  1  0.29180562  0.83337505  0.52382395  1
  Br  Br31  1  0.29176859  0.45848504  0.02399938  1
  Br  Br32  1  0.87495859  0.49973110  0.69035976  1
  Br  Br33  1  0.54155675  0.83328205  0.02385147  1
  Br  Br34  1  0.16671771  0.45844355  0.52385340  1
  Br  Br35  1  0.16662411  0.70819346  0.02382527  1
