# generated using pymatgen
data_LiBr
_symmetry_space_group_name_H-M   'P 1'
_cell_length_a   6.39003346
_cell_length_b   5.60158348
_cell_length_c   6.39472157
_cell_angle_alpha   89.99966770
_cell_angle_beta   90.00027917
_cell_angle_gamma   90.00002648
_symmetry_Int_Tables_number   1
_chemical_formula_structural   LiBr
_chemical_formula_sum   'Li4 Br4'
_cell_volume   228.89461972
_cell_formula_units_Z   4
loop_
 _symmetry_equiv_pos_site_id
 _symmetry_equiv_pos_as_xyz
  1  'x, y, z'
loop_
 _atom_site_type_symbol
 _atom_site_label
 _atom_site_symmetry_multiplicity
 _atom_site_fract_x
 _atom_site_fract_y
 _atom_site_fract_z
 _atom_site_occupancy
  Li  Li0  1  0.75001823  0.00088295  0.19899047  1
  Li  Li1  1  0.25001804  0.99911732  0.19899073  1
  Li  Li2  1  0.24998136  0.99912248  0.69898906  1
  Li  Li3  1  0.74998138  0.00087560  0.69898888  1
  Br  Br4  1  0.50068402  0.78831786  0.94949279  1
  Br  Br5  1  0.00068418  0.21168301  0.94949021  1
  Br  Br6  1  0.49931640  0.21167985  0.44949096  1
  Br  Br7  1  0.99931640  0.78832094  0.44949283  1
