# generated using pymatgen
data_LiBr
_symmetry_space_group_name_H-M   'P 1'
_cell_length_a   9.81861032
_cell_length_b   9.81841561
_cell_length_c   8.85584470
_cell_angle_alpha   89.98422764
_cell_angle_beta   90.01726342
_cell_angle_gamma   120.03064676
_symmetry_Int_Tables_number   1
_chemical_formula_structural   LiBr
_chemical_formula_sum   'Li9 Br9'
_cell_volume   739.12490297
_cell_formula_units_Z   9
loop_
 _symmetry_equiv_pos_site_id
 _symmetry_equiv_pos_as_xyz
  1  'x, y, z'
loop_
 _atom_site_type_symbol
 _atom_site_label
 _atom_site_symmetry_multiplicity
 _atom_site_fract_x
 _atom_site_fract_y
 _atom_site_fract_z
 _atom_site_occupancy
  Li  Li0  1  0.74322537  0.87257018  0.75424322  1
  Li  Li1  1  0.46091184  0.53756236  0.42108795  1
  Li  Li2  1  0.07669356  0.53906836  0.42092823  1
  Li  Li3  1  0.79418459  0.20413926  0.08787702  1
  Li  Li4  1  0.41006810  0.20586947  0.08776787  1
  Li  Li5  1  0.79581585  0.59002299  0.08784164  1
  Li  Li6  1  0.12745923  0.87059697  0.75433609  1
  Li  Li7  1  0.46247802  -0.07658329  0.42102314  1
  Li  Li8  1  0.12933386  0.25677381  0.75428583  1
  Br  Br9  1  0.18712511  0.37553805  0.50224443  1
  Br  Br10  1  0.95783700  0.47822101  0.16903206  1
  Br  Br11  1  0.52027191  0.04212092  0.16905891  1
  Br  Br12  1  0.29119311  0.14486301  0.83578151  1
  Br  Br13  1  0.85353784  0.70874376  0.83576879  1
  Br  Br14  1  0.85519264  0.14635413  0.83591623  1
  Br  Br15  1  0.62439120  0.81167693  0.50225863  1
  Br  Br16  1  0.52184360  0.47967557  0.16921781  1
  Br  Br17  1  0.18843716  0.81278649  0.50237161  1
