# generated using pymatgen
data_LiI
_symmetry_space_group_name_H-M   'P 1'
_cell_length_a   12.58760989
_cell_length_b   12.58761933
_cell_length_c   8.67466368
_cell_angle_alpha   90.00024159
_cell_angle_beta   89.99961539
_cell_angle_gamma   120.02618631
_symmetry_Int_Tables_number   1
_chemical_formula_structural   LiI
_chemical_formula_sum   'Li18 I18'
_cell_volume   1190.02338476
_cell_formula_units_Z   18
loop_
 _symmetry_equiv_pos_site_id
 _symmetry_equiv_pos_as_xyz
  1  'x, y, z'
loop_
 _atom_site_type_symbol
 _atom_site_label
 _atom_site_symmetry_multiplicity
 _atom_site_fract_x
 _atom_site_fract_y
 _atom_site_fract_z
 _atom_site_occupancy
  Li  Li0  1  0.79856450  0.59566832  0.04637564  1
  Li  Li1  1  0.79897640  0.20308841  0.54624751  1
  Li  Li2  1  0.73766493  0.86810286  0.21303752  1
  Li  Li3  1  0.13041661  0.26241421  0.21283161  1
  Li  Li4  1  0.07091993  0.53625088  0.37949852  1
  Li  Li5  1  0.40425380  0.20291897  0.04616348  1
  Li  Li6  1  0.13024510  0.86769057  0.71291436  1
  Li  Li7  1  0.73758437  0.86958288  0.71282860  1
  Li  Li8  1  0.79691359  0.20102325  0.04624679  1
  Li  Li9  1  0.79708225  0.59574904  0.54616542  1
  Li  Li10  1  0.13189600  0.26233410  0.71304126  1
  Li  Li11  1  0.13230983  0.86975436  0.21291383  1
  Li  Li12  1  0.46357779  0.53435623  0.37958209  1
  Li  Li13  1  0.46374767  -0.07091928  0.87949540  1
  Li  Li14  1  0.40433266  0.20143749  0.54637449  1
  Li  Li15  1  0.07099909  0.53477100  0.87970734  1
  Li  Li16  1  0.46522964  -0.07099912  0.37970537  1
  Li  Li17  1  0.46564301  0.53641949  0.87958162  1
  I  I18  1  0.21448835  0.42717305  0.95274462  1
  I  I19  1  0.21426148  0.78728987  0.45277335  1
  I  I20  1  0.90616023  0.45217714  0.11941383  1
  I  I21  1  0.54589646  0.09363456  0.11947059  1
  I  I22  1  0.23969969  0.12077168  0.28614074  1
  I  I23  1  0.57303032  0.78743689  0.95280472  1
  I  I24  1  0.54604399  0.45240633  0.61944053  1
  I  I25  1  0.90636388  0.45410480  0.61947427  1
  I  I26  1  0.21271034  0.78573976  0.95277317  1
  I  I27  1  0.21256106  0.42696726  0.45280732  1
  I  I28  1  0.54782258  0.09383996  0.61941037  1
  I  I29  1  0.54759539  0.45395720  0.11944096  1
  I  I30  1  0.87937807  0.11907187  0.28610662  1
  I  I31  1  0.87922846  0.76030123  0.78614082  1
  I  I32  1  0.57282562  0.78551040  0.45274387  1
  I  I33  1  0.23949349  0.11884477  0.78607960  1
  I  I34  1  0.88115582  0.76050751  0.28607853  1
  I  I35  1  0.88092761  0.12062206  0.78610599  1
