# generated using pymatgen
data_LiI
_symmetry_space_group_name_H-M   'P 1'
_cell_length_a   7.41065226
_cell_length_b   4.27160231
_cell_length_c   7.26408154
_cell_angle_alpha   90.00210037
_cell_angle_beta   109.84195197
_cell_angle_gamma   90.00698466
_symmetry_Int_Tables_number   1
_chemical_formula_structural   LiI
_chemical_formula_sum   'Li4 I4'
_cell_volume   216.29572170
_cell_formula_units_Z   4
loop_
 _symmetry_equiv_pos_site_id
 _symmetry_equiv_pos_as_xyz
  1  'x, y, z'
loop_
 _atom_site_type_symbol
 _atom_site_label
 _atom_site_symmetry_multiplicity
 _atom_site_fract_x
 _atom_site_fract_y
 _atom_site_fract_z
 _atom_site_occupancy
  Li  Li0  1  -0.05345943  0.75241306  0.91278733  1
  Li  Li1  1  0.44654825  0.25241937  0.91278691  1
  Li  Li2  1  -0.05355707  0.24748176  0.41280387  1
  Li  Li3  1  0.44643523  0.74747259  0.41280136  1
  I  I4  1  0.19711719  0.74976135  0.66434297  1
  I  I5  1  0.69711875  0.24976202  0.66434242  1
  I  I6  1  0.19712031  0.25034173  0.16436115  1
  I  I7  1  0.69712046  0.75034812  0.16436098  1
