# generated using pymatgen
data_KI
_symmetry_space_group_name_H-M   'P 1'
_cell_length_a   10.17959501
_cell_length_b   7.17937681
_cell_length_c   5.07990435
_cell_angle_alpha   89.99999929
_cell_angle_beta   89.99996651
_cell_angle_gamma   90.00000011
_symmetry_Int_Tables_number   1
_chemical_formula_structural   KI
_chemical_formula_sum   'K4 I4'
_cell_volume   371.25540323
_cell_formula_units_Z   4
loop_
 _symmetry_equiv_pos_site_id
 _symmetry_equiv_pos_as_xyz
  1  'x, y, z'
loop_
 _atom_site_type_symbol
 _atom_site_label
 _atom_site_symmetry_multiplicity
 _atom_site_fract_x
 _atom_site_fract_y
 _atom_site_fract_z
 _atom_site_occupancy
  K  K0  1  0.37481977  0.25241379  0.50071657  1
  K  K1  1  0.62518023  0.75241379  -0.00071646  1
  K  K2  1  0.12518023  0.74758621  0.00071643  1
  K  K3  1  0.87481977  0.24758622  0.49928346  1
  I  I4  1  0.62496255  0.25220556  -0.00012082  1
  I  I5  1  0.37503745  0.75220555  0.50012052  1
  I  I6  1  0.87503746  0.74779445  0.49987945  1
  I  I7  1  0.12496254  0.24779444  0.00012085  1
