# generated using pymatgen
data_LiBr
_symmetry_space_group_name_H-M   'P 1'
_cell_length_a   11.54031576
_cell_length_b   11.54034396
_cell_length_c   9.64084663
_cell_angle_alpha   90.01604253
_cell_angle_beta   89.98395408
_cell_angle_gamma   120.04157149
_symmetry_Int_Tables_number   1
_chemical_formula_structural   LiBr
_chemical_formula_sum   'Li18 Br18'
_cell_volume   1111.47615197
_cell_formula_units_Z   18
loop_
 _symmetry_equiv_pos_site_id
 _symmetry_equiv_pos_as_xyz
  1  'x, y, z'
loop_
 _atom_site_type_symbol
 _atom_site_label
 _atom_site_symmetry_multiplicity
 _atom_site_fract_x
 _atom_site_fract_y
 _atom_site_fract_z
 _atom_site_occupancy
  Li  Li0  1  0.83381253  0.16894021  0.54426432  1
  Li  Li1  1  0.83387341  0.66498620  0.04426934  1
  Li  Li2  1  0.16439297  0.83285067  0.71093142  1
  Li  Li3  1  0.66837144  0.83545268  0.71090652  1
  Li  Li4  1  0.49787904  -0.00170368  0.87757408  1
  Li  Li5  1  0.83121554  0.66496472  0.54424004  1
  Li  Li6  1  0.66834793  0.83279510  0.21093618  1
  Li  Li7  1  0.16454640  0.33163246  0.21090649  1
  Li  Li8  1  0.33501325  0.16612915  0.54427020  1
  Li  Li9  1  0.33503627  0.16878741  0.04423979  1
  Li  Li10  1  0.16714989  0.83560792  0.21093093  1
  Li  Li11  1  0.16720292  0.33165185  0.71093506  1
  Li  Li12  1  0.00168066  0.49946174  0.87760249  1
  Li  Li13  1  0.00170150  0.50211926  0.37757285  1
  Li  Li14  1  0.83105804  0.16618368  0.04426519  1
  Li  Li15  1  0.49772740  0.49951859  0.37759738  1
  Li  Li16  1  0.50048310  0.50227471  0.87759715  1
  Li  Li17  1  0.50053590  -0.00168274  0.37760358  1
  Br  Br18  1  0.74500475  0.66348334  0.29353192  1
  Br  Br19  1  0.74493792  0.08162769  0.79351810  1
  Br  Br20  1  0.66985000  0.92166316  0.46019890  1
  Br  Br21  1  0.25161566  0.32979148  0.46017951  1
  Br  Br22  1  0.00354136  0.41504932  0.62684699  1
  Br  Br23  1  0.33687682  0.08171840  0.29351467  1
  Br  Br24  1  0.25170444  0.92172880  0.96018396  1
  Br  Br25  1  0.67021264  0.74838496  0.96017966  1
  Br  Br26  1  0.91836902  0.25505990  0.29351621  1
  Br  Br27  1  0.91828358  0.66312318  0.79351282  1
  Br  Br28  1  0.07833622  0.33014937  0.96019902  1
  Br  Br29  1  0.07827469  0.74829525  0.46018390  1
  Br  Br30  1  0.58503955  0.58839324  0.62685005  1
  Br  Br31  1  0.58494625  -0.00354693  0.12684758  1
  Br  Br32  1  0.33651654  0.25499798  0.79353170  1
  Br  Br33  1  0.00318555  0.58833139  0.12686554  1
  Br  Br34  1  0.41166996  -0.00318363  0.62686577  1
  Br  Br35  1  0.41160690  0.41496316  0.12684962  1
