# generated using pymatgen
data_LiBr
_symmetry_space_group_name_H-M   'P 1'
_cell_length_a   7.25231285
_cell_length_b   6.93446452
_cell_length_c   3.75068250
_cell_angle_alpha   90.00034146
_cell_angle_beta   89.99988395
_cell_angle_gamma   89.99970419
_symmetry_Int_Tables_number   1
_chemical_formula_structural   LiBr
_chemical_formula_sum   'Li4 Br4'
_cell_volume   188.62522157
_cell_formula_units_Z   4
loop_
 _symmetry_equiv_pos_site_id
 _symmetry_equiv_pos_as_xyz
  1  'x, y, z'
loop_
 _atom_site_type_symbol
 _atom_site_label
 _atom_site_symmetry_multiplicity
 _atom_site_fract_x
 _atom_site_fract_y
 _atom_site_fract_z
 _atom_site_occupancy
  Li  Li0  1  0.55388031  0.58416650  0.75054420  1
  Li  Li1  1  0.44611784  0.08416571  0.74946788  1
  Li  Li2  1  0.94611965  0.41583411  0.25053886  1
  Li  Li3  1  0.05388067  0.91583388  0.24944825  1
  Br  Br4  1  0.89635324  0.69557498  0.75019080  1
  Br  Br5  1  0.10364845  0.19557283  0.74979883  1
  Br  Br6  1  0.60364705  0.30442578  0.25020315  1
  Br  Br7  1  0.39635278  0.80442622  0.24980803  1
