# generated using pymatgen
data_LiBr
_symmetry_space_group_name_H-M   'P 1'
_cell_length_a   4.16061154
_cell_length_b   4.16028924
_cell_length_c   10.19969006
_cell_angle_alpha   89.99848720
_cell_angle_beta   89.99906319
_cell_angle_gamma   120.00150839
_symmetry_Int_Tables_number   1
_chemical_formula_structural   LiBr
_chemical_formula_sum   'Li3 Br3'
_cell_volume   152.89444248
_cell_formula_units_Z   3
loop_
 _symmetry_equiv_pos_site_id
 _symmetry_equiv_pos_as_xyz
  1  'x, y, z'
loop_
 _atom_site_type_symbol
 _atom_site_label
 _atom_site_symmetry_multiplicity
 _atom_site_fract_x
 _atom_site_fract_y
 _atom_site_fract_z
 _atom_site_occupancy
  Li  Li0  1  0.33724469  0.00494610  0.64112979  1
  Li  Li1  1  -0.00494703  0.33231888  -0.02552567  1
  Li  Li2  1  0.66772166  0.66276132  0.30780073  1
  Br  Br3  1  0.32932350  -0.00040017  0.89109733  1
  Br  Br4  1  0.00041228  0.32971564  0.22442984  1
  Br  Br5  1  0.67024487  0.67065824  0.55776693  1
