# generated using pymatgen
data_LiBr
_symmetry_space_group_name_H-M   'P 1'
_cell_length_a   10.68082697
_cell_length_b   10.68083933
_cell_length_c   10.68083667
_cell_angle_alpha   90.00023633
_cell_angle_beta   90.00027317
_cell_angle_gamma   90.00008222
_symmetry_Int_Tables_number   1
_chemical_formula_structural   LiBr
_chemical_formula_sum   'Li24 Br24'
_cell_volume   1218.47194931
_cell_formula_units_Z   24
loop_
 _symmetry_equiv_pos_site_id
 _symmetry_equiv_pos_as_xyz
  1  'x, y, z'
loop_
 _atom_site_type_symbol
 _atom_site_label
 _atom_site_symmetry_multiplicity
 _atom_site_fract_x
 _atom_site_fract_y
 _atom_site_fract_z
 _atom_site_occupancy
  Li  Li0  1  0.65509884  -0.00021854  0.17443969  1
  Li  Li1  1  0.65509789  0.00021825  0.82556075  1
  Li  Li2  1  0.67443858  0.15509874  0.50022053  1
  Li  Li3  1  0.17443950  0.34490284  0.00022076  1
  Li  Li4  1  -0.00021824  0.82556250  0.34490099  1
  Li  Li5  1  0.17443937  0.65509703  -0.00021822  1
  Li  Li6  1  0.82556025  0.65509659  0.00021818  1
  Li  Li7  1  0.82556073  0.34490273  -0.00022061  1
  Li  Li8  1  0.00021869  0.17443821  0.34490324  1
  Li  Li9  1  -0.00021851  0.17443763  0.65509883  1
  Li  Li10  1  0.00021763  0.82556206  0.65509662  1
  Li  Li11  1  0.34490082  -0.00021973  0.82556089  1
  Li  Li12  1  0.34490213  0.00021963  0.17443908  1
  Li  Li13  1  0.32556119  0.84490136  0.50021741  1
  Li  Li14  1  0.67443909  0.84490226  0.49978242  1
  Li  Li15  1  0.32556138  0.15509839  0.49977976  1
  Li  Li16  1  0.50021890  0.67443876  0.15509827  1
  Li  Li17  1  0.49978033  0.32556007  0.15509624  1
  Li  Li18  1  0.50021933  0.32556101  0.84490164  1
  Li  Li19  1  0.49978165  0.67443989  0.84490391  1
  Li  Li20  1  0.15509852  0.50021993  0.67443777  1
  Li  Li21  1  0.15509688  0.49977984  0.32556194  1
  Li  Li22  1  0.84490174  0.50021872  0.32556170  1
  Li  Li23  1  0.84490326  0.49978190  0.67443864  1
  Br  Br24  1  0.32522858  0.50003695  0.83140233  1
  Br  Br25  1  0.32522641  0.49996313  0.16859795  1
  Br  Br26  1  0.33140118  0.82522706  -0.00003632  1
  Br  Br27  1  0.83140153  0.67477262  0.49996290  1
  Br  Br28  1  0.50003600  0.16859837  0.67477230  1
  Br  Br29  1  0.83140169  0.32522803  0.50003724  1
  Br  Br30  1  0.16859856  0.32522754  0.49996412  1
  Br  Br31  1  0.16859842  0.67477191  0.50003559  1
  Br  Br32  1  0.49996246  0.83140147  0.67477406  1
  Br  Br33  1  0.50003752  0.83140166  0.32522747  1
  Br  Br34  1  0.49996395  0.16859853  0.32522605  1
  Br  Br35  1  0.67477144  0.50003648  0.16859766  1
  Br  Br36  1  0.67477386  0.49996306  0.83140207  1
  Br  Br37  1  0.66859867  0.17477287  -0.00003728  1
  Br  Br38  1  0.33140158  0.17477341  0.00003656  1
  Br  Br39  1  0.66859840  0.82522670  0.00003702  1
  Br  Br40  1  -0.00003642  0.33140211  0.82522897  1
  Br  Br41  1  0.00003728  0.66859761  0.82522651  1
  Br  Br42  1  -0.00003746  0.66859790  0.17477080  1
  Br  Br43  1  0.00003668  0.33140238  0.17477366  1
  Br  Br44  1  0.82522825  -0.00003660  0.33140121  1
  Br  Br45  1  0.82522553  0.00003684  0.66859845  1
  Br  Br46  1  0.17477153  -0.00003683  0.66859875  1
  Br  Br47  1  0.17477445  0.00003673  0.33140147  1
