# generated using pymatgen
data_LiBr
_symmetry_space_group_name_H-M   'P 1'
_cell_length_a   10.66769171
_cell_length_b   10.66769885
_cell_length_c   10.66762269
_cell_angle_alpha   90.00000145
_cell_angle_beta   90.00001041
_cell_angle_gamma   89.99998153
_symmetry_Int_Tables_number   1
_chemical_formula_structural   LiBr
_chemical_formula_sum   'Li24 Br24'
_cell_volume   1213.97250283
_cell_formula_units_Z   24
loop_
 _symmetry_equiv_pos_site_id
 _symmetry_equiv_pos_as_xyz
  1  'x, y, z'
loop_
 _atom_site_type_symbol
 _atom_site_label
 _atom_site_symmetry_multiplicity
 _atom_site_fract_x
 _atom_site_fract_y
 _atom_site_fract_z
 _atom_site_occupancy
  Li  Li0  1  0.49930787  0.00126312  0.24981641  1
  Li  Li1  1  -0.00069154  0.49873678  0.75018320  1
  Li  Li2  1  0.74981925  0.49930612  0.49873792  1
  Li  Li3  1  0.74981334  0.00069409  0.99873466  1
  Li  Li4  1  0.50126351  0.25017941  0.50069133  1
  Li  Li5  1  0.24981968  0.49930841  0.00126659  1
  Li  Li6  1  0.75018620  -0.00069300  0.49873740  1
  Li  Li7  1  0.25018067  0.50069483  0.50126052  1
  Li  Li8  1  0.99873461  0.74981343  0.00069414  1
  Li  Li9  1  0.00126253  0.24981358  0.49930362  1
  Li  Li10  1  0.49873658  0.75017927  -0.00069303  1
  Li  Li11  1  0.50069460  0.50126383  0.25018909  1
  Li  Li12  1  0.00069420  0.99873785  0.74982371  1
  Li  Li13  1  0.75018033  0.50069319  0.99873385  1
  Li  Li14  1  0.24981466  0.00069097  0.50126353  1
  Li  Li15  1  0.25018656  -0.00069684  0.00126377  1
  Li  Li16  1  0.49873548  0.74982118  0.49930919  1
  Li  Li17  1  0.00126467  0.25018673  -0.00069438  1
  Li  Li18  1  0.99873610  0.75018687  0.50069606  1
  Li  Li19  1  0.50126243  0.24982076  0.00069397  1
  Li  Li20  1  0.49930618  0.49873600  0.74981111  1
  Li  Li21  1  -0.00069332  0.00126334  0.25017623  1
  Li  Li22  1  0.50069293  0.99873757  0.75018338  1
  Li  Li23  1  0.00069255  0.50126363  0.24981689  1
  Br  Br24  1  0.49978855  0.74945993  0.74957291  1
  Br  Br25  1  -0.00021120  0.75054083  0.25039686  1
  Br  Br26  1  0.24958910  0.49978800  0.75049937  1
  Br  Br27  1  0.24958828  0.00021153  0.25049868  1
  Br  Br28  1  0.24944266  0.75045389  0.50021178  1
  Br  Br29  1  0.74958764  0.49978853  0.74945526  1
  Br  Br30  1  0.25041111  -0.00021203  0.75058381  1
  Br  Br31  1  0.75041145  0.50021166  0.24946200  1
  Br  Br32  1  0.25056227  0.24963023  0.00021128  1
  Br  Br33  1  0.74947481  0.74959220  0.49978873  1
  Br  Br34  1  0.75051979  0.25041579  -0.00021180  1
  Br  Br35  1  0.50021149  0.24945788  0.75039063  1
  Br  Br36  1  0.00021146  0.25054168  0.24956792  1
  Br  Br37  1  0.25041223  0.50021114  0.25058329  1
  Br  Br38  1  0.74958898  0.00021175  0.24945458  1
  Br  Br39  1  0.75041279  -0.00021182  0.74946240  1
  Br  Br40  1  0.75056194  0.24958449  0.49978843  1
  Br  Br41  1  0.74944188  0.75040807  -0.00021126  1
  Br  Br42  1  0.25052052  0.25036909  0.50021129  1
  Br  Br43  1  0.24947498  0.74954520  0.00021200  1
  Br  Br44  1  0.49978834  0.75054206  0.24960476  1
  Br  Br45  1  -0.00021160  0.74945810  0.75042781  1
  Br  Br46  1  0.50021137  0.25054082  0.25043227  1
  Br  Br47  1  0.00021107  0.24945983  0.74960782  1
