# generated using pymatgen
data_LiI
_symmetry_space_group_name_H-M   'P 1'
_cell_length_a   11.73686102
_cell_length_b   11.73684663
_cell_length_c   12.18957618
_cell_angle_alpha   89.99318733
_cell_angle_beta   90.00650874
_cell_angle_gamma   119.97494818
_symmetry_Int_Tables_number   1
_chemical_formula_structural   LiI
_chemical_formula_sum   'Li18 I18'
_cell_volume   1454.56188403
_cell_formula_units_Z   18
loop_
 _symmetry_equiv_pos_site_id
 _symmetry_equiv_pos_as_xyz
  1  'x, y, z'
loop_
 _atom_site_type_symbol
 _atom_site_label
 _atom_site_symmetry_multiplicity
 _atom_site_fract_x
 _atom_site_fract_y
 _atom_site_fract_z
 _atom_site_occupancy
  Li  Li0  1  0.58156146  0.66657282  0.08378366  1
  Li  Li1  1  0.58153835  0.91496852  0.58377097  1
  Li  Li2  1  0.66675353  0.08528073  0.25069496  1
  Li  Li3  1  0.41850036  0.33320239  0.25067588  1
  Li  Li4  1  -0.00001961  0.24824551  0.41762372  1
  Li  Li5  1  0.33346583  0.91501405  0.08375779  1
  Li  Li6  1  0.41853224  0.08529738  0.75068886  1
  Li  Li7  1  0.66679729  0.58150046  0.75067580  1
  Li  Li8  1  0.08503039  0.41846183  0.08377029  1
  Li  Li9  1  0.08498598  0.66653441  0.58375791  1
  Li  Li10  1  0.91471630  0.33324671  0.75069331  1
  Li  Li11  1  0.91470314  0.58146630  0.25068839  1
  Li  Li12  1  0.75179554  0.75174791  0.41764398  1
  Li  Li13  1  0.75175464  0.00002004  0.91762517  1
  Li  Li14  1  0.33342619  0.41844021  0.58378452  1
  Li  Li15  1  -0.00005896  0.75171827  0.91765293  1
  Li  Li16  1  0.24828291  0.00005979  0.41765373  1
  Li  Li17  1  0.24825135  0.24820451  0.91764175  1
  I  I18  1  0.89649771  0.33337187  0.25066441  1
  I  I19  1  0.89645040  0.56312552  0.75064551  1
  I  I20  1  0.99998574  0.77039623  0.41721955  1
  I  I21  1  0.77037618  -0.00005807  0.41717459  1
  I  I22  1  0.33340806  0.89636763  0.58398938  1
  I  I23  1  0.66670740  0.56316641  0.25062973  1
  I  I24  1  0.77041775  0.77044555  0.91719813  1
  I  I25  1  0.00006046  0.22962772  0.91717313  1
  I  I26  1  0.43687467  0.10355113  0.25064750  1
  I  I27  1  0.43683182  0.33329075  0.75063037  1
  I  I28  1  0.22960355  0.00001618  0.91722005  1
  I  I29  1  0.22955690  0.22958312  0.41719778  1
  I  I30  1  0.10366782  0.43704856  0.58400495  1
  I  I31  1  0.10363210  0.66659119  0.08398983  1
  I  I32  1  0.66662666  0.10350078  0.75066730  1
  I  I33  1  0.33333055  0.43699402  0.08402982  1
  I  I34  1  0.56300466  0.66666960  0.58402945  1
  I  I35  1  0.56295065  0.89632996  0.08400527  1
