# generated using pymatgen
data_LiBr
_symmetry_space_group_name_H-M   'P 1'
_cell_length_a   14.43938615
_cell_length_b   14.43938028
_cell_length_c   14.43938282
_cell_angle_alpha   90.00001820
_cell_angle_beta   89.99999071
_cell_angle_gamma   90.00000531
_symmetry_Int_Tables_number   1
_chemical_formula_structural   LiBr
_chemical_formula_sum   'Li48 Br48'
_cell_volume   3010.55049383
_cell_formula_units_Z   48
loop_
 _symmetry_equiv_pos_site_id
 _symmetry_equiv_pos_as_xyz
  1  'x, y, z'
loop_
 _atom_site_type_symbol
 _atom_site_label
 _atom_site_symmetry_multiplicity
 _atom_site_fract_x
 _atom_site_fract_y
 _atom_site_fract_z
 _atom_site_occupancy
  Li  Li0  1  0.50192264  0.57056073  0.82759546  1
  Li  Li1  1  0.67240460  0.00192252  0.57056079  1
  Li  Li2  1  0.32759541  0.49807747  0.57056042  1
  Li  Li3  1  0.67240447  -0.00192244  0.92943961  1
  Li  Li4  1  0.32759557  0.50192257  0.92943891  1
  Li  Li5  1  0.57056085  0.67240445  0.00192262  1
  Li  Li6  1  0.42943958  0.82759535  0.00192280  1
  Li  Li7  1  0.50192247  0.42943926  0.67240446  1
  Li  Li8  1  0.00192264  0.07056051  0.32759517  1
  Li  Li9  1  0.17240455  0.50192250  0.07056090  1
  Li  Li10  1  0.17240469  -0.00192255  0.57056085  1
  Li  Li11  1  0.92943927  0.82759558  0.49807755  1
  Li  Li12  1  0.17240467  0.00192256  0.92943962  1
  Li  Li13  1  0.82759539  0.50192255  0.57056056  1
  Li  Li14  1  0.82759552  0.49807752  0.92943906  1
  Li  Li15  1  0.07056063  0.67240457  0.49807730  1
  Li  Li16  1  0.92943946  0.17240466  0.00192298  1
  Li  Li17  1  0.42943936  0.67240439  0.50192296  1
  Li  Li18  1  0.57056070  0.82759562  0.50192216  1
  Li  Li19  1  -0.00192258  0.42943932  0.32759572  1
  Li  Li20  1  0.49807744  0.42943913  0.17240453  1
  Li  Li21  1  0.57056062  0.32759565  0.49807695  1
  Li  Li22  1  0.42943921  0.17240451  0.49807782  1
  Li  Li23  1  0.00192254  0.57056062  0.67240420  1
  Li  Li24  1  0.00192261  0.42943955  0.82759563  1
  Li  Li25  1  -0.00192256  0.07056039  0.82759518  1
  Li  Li26  1  0.07056056  0.32759530  0.00192224  1
  Li  Li27  1  0.49807748  0.92943945  0.82759577  1
  Li  Li28  1  0.49807740  0.07056042  0.67240439  1
  Li  Li29  1  0.82759526  -0.00192262  0.07056035  1
  Li  Li30  1  0.17240456  0.49807746  0.42943966  1
  Li  Li31  1  0.82759537  0.00192256  0.42943916  1
  Li  Li32  1  0.07056078  0.17240434  0.50192240  1
  Li  Li33  1  0.92943947  0.32759547  0.50192282  1
  Li  Li34  1  0.07056043  0.82759532  -0.00192301  1
  Li  Li35  1  0.92943944  0.67240461  -0.00192225  1
  Li  Li36  1  -0.00192259  0.57056055  0.17240439  1
  Li  Li37  1  0.00192248  0.92943953  0.17240475  1
  Li  Li38  1  0.50192247  0.07056069  0.17240426  1
  Li  Li39  1  0.50192263  0.92943979  0.32759558  1
  Li  Li40  1  0.49807753  0.57056077  0.32759553  1
  Li  Li41  1  -0.00192263  0.92943948  0.67240482  1
  Li  Li42  1  0.32759540  -0.00192248  0.42943922  1
  Li  Li43  1  0.67240458  0.50192260  0.42943944  1
  Li  Li44  1  0.32759551  0.00192244  0.07056044  1
  Li  Li45  1  0.67240444  0.49807729  0.07056112  1
  Li  Li46  1  0.42943934  0.32759548  -0.00192256  1
  Li  Li47  1  0.57056048  0.17240461  -0.00192276  1
  Br  Br48  1  0.83838461  0.06103549  0.90343820  1
  Br  Br49  1  0.59656158  0.33838451  0.06103563  1
  Br  Br50  1  0.40343823  0.16161536  0.06103530  1
  Br  Br51  1  0.59656170  0.66161534  0.43896447  1
  Br  Br52  1  0.40343829  0.83838451  0.43896434  1
  Br  Br53  1  0.06103555  0.59656171  0.33838446  1
  Br  Br54  1  0.93896441  0.90343817  0.33838462  1
  Br  Br55  1  0.83838468  0.93896451  0.59656175  1
  Br  Br56  1  0.33838456  0.56103556  0.40343825  1
  Br  Br57  1  0.09656167  0.83838455  0.56103560  1
  Br  Br58  1  0.09656169  0.66161543  0.06103565  1
  Br  Br59  1  0.43896441  0.90343831  0.16161559  1
  Br  Br60  1  0.09656170  0.33838463  0.43896447  1
  Br  Br61  1  0.90343830  0.83838461  0.06103555  1
  Br  Br62  1  0.90343831  0.16161546  0.43896438  1
  Br  Br63  1  0.56103569  0.59656167  0.16161543  1
  Br  Br64  1  0.43896441  0.09656191  0.33838465  1
  Br  Br65  1  0.93896443  0.59656184  0.83838468  1
  Br  Br66  1  0.06103574  0.90343821  0.83838458  1
  Br  Br67  1  0.66161553  0.93896457  0.40343823  1
  Br  Br68  1  0.16161536  0.93896446  0.09656184  1
  Br  Br69  1  0.06103549  0.40343823  0.16161534  1
  Br  Br70  1  0.93896425  0.09656174  0.16161544  1
  Br  Br71  1  0.33838453  0.06103549  0.59656178  1
  Br  Br72  1  0.33838455  0.93896423  0.90343836  1
  Br  Br73  1  0.66161544  0.56103535  0.90343836  1
  Br  Br74  1  0.56103578  0.40343837  0.33838460  1
  Br  Br75  1  0.16161547  0.43896451  0.90343832  1
  Br  Br76  1  0.16161547  0.56103560  0.59656168  1
  Br  Br77  1  0.90343826  0.66161542  0.56103545  1
  Br  Br78  1  0.09656167  0.16161531  0.93896449  1
  Br  Br79  1  0.90343828  0.33838453  0.93896439  1
  Br  Br80  1  0.56103563  0.09656172  0.83838444  1
  Br  Br81  1  0.43896438  0.40343829  0.83838450  1
  Br  Br82  1  0.56103551  0.90343821  0.66161536  1
  Br  Br83  1  0.43896436  0.59656166  0.66161554  1
  Br  Br84  1  0.66161544  0.06103563  0.09656169  1
  Br  Br85  1  0.33838458  0.43896456  0.09656165  1
  Br  Br86  1  0.83838455  0.56103545  0.09656177  1
  Br  Br87  1  0.83838454  0.43896448  0.40343836  1
  Br  Br88  1  0.16161534  0.06103542  0.40343822  1
  Br  Br89  1  0.66161537  0.43896448  0.59656170  1
  Br  Br90  1  0.40343846  0.66161543  0.93896448  1
  Br  Br91  1  0.59656175  0.83838460  0.93896456  1
  Br  Br92  1  0.40343832  0.33838471  0.56103551  1
  Br  Br93  1  0.59656170  0.16161555  0.56103551  1
  Br  Br94  1  0.93896428  0.40343834  0.66161554  1
  Br  Br95  1  0.06103560  0.09656179  0.66161534  1
