# generated using pymatgen
data_LiBr
_symmetry_space_group_name_H-M   'P 1'
_cell_length_a   13.48708778
_cell_length_b   13.65755441
_cell_length_c   4.04800974
_cell_angle_alpha   90.00011398
_cell_angle_beta   90.00005930
_cell_angle_gamma   89.97341055
_symmetry_Int_Tables_number   1
_chemical_formula_structural   LiBr
_chemical_formula_sum   'Li16 Br16'
_cell_volume   745.64588519
_cell_formula_units_Z   16
loop_
 _symmetry_equiv_pos_site_id
 _symmetry_equiv_pos_as_xyz
  1  'x, y, z'
loop_
 _atom_site_type_symbol
 _atom_site_label
 _atom_site_symmetry_multiplicity
 _atom_site_fract_x
 _atom_site_fract_y
 _atom_site_fract_z
 _atom_site_occupancy
  Li  Li0  1  0.24144713  0.60334814  0.56948588  1
  Li  Li1  1  0.75855305  0.39665196  0.56947901  1
  Li  Li2  1  0.00849290  0.85330072  0.82024238  1
  Li  Li3  1  0.25855301  0.39665159  0.06948006  1
  Li  Li4  1  0.50849297  0.85330059  0.32024414  1
  Li  Li5  1  0.49150674  0.64669899  0.82024374  1
  Li  Li6  1  0.74144723  0.60334802  0.06948395  1
  Li  Li7  1  0.50849293  0.35330083  0.82024355  1
  Li  Li8  1  0.49150685  0.14669909  0.32024283  1
  Li  Li9  1  0.74144723  0.10334793  0.56948411  1
  Li  Li10  1  0.25855319  0.89665176  0.56947915  1
  Li  Li11  1  0.00849284  0.35330077  0.32024284  1
  Li  Li12  1  0.99150686  0.64669916  0.32024209  1
  Li  Li13  1  0.99150694  0.14669919  0.82024254  1
  Li  Li14  1  0.24144746  0.10334799  0.06948440  1
  Li  Li15  1  0.75855319  0.89665197  0.06947882  1
  Br  Br16  1  0.13784694  0.54694945  0.08697135  1
  Br  Br17  1  0.86215348  0.45305050  0.08696955  1
  Br  Br18  1  0.11214523  0.79687120  0.33789910  1
  Br  Br19  1  0.36215347  0.45305054  0.58697150  1
  Br  Br20  1  0.61214533  0.79687091  0.83790137  1
  Br  Br21  1  0.38785400  0.70312917  0.33790351  1
  Br  Br22  1  0.63784678  0.54694981  0.58696846  1
  Br  Br23  1  0.61214524  0.29687107  0.33790076  1
  Br  Br24  1  0.38785414  0.20312916  0.83790228  1
  Br  Br25  1  0.63784683  0.04694976  0.08696854  1
  Br  Br26  1  0.36215380  0.95305043  0.08697027  1
  Br  Br27  1  0.11214514  0.29687116  0.83789942  1
  Br  Br28  1  0.88785424  0.70312896  0.83790121  1
  Br  Br29  1  0.88785413  0.20312900  0.33790195  1
  Br  Br30  1  0.13784716  0.04694971  0.58696949  1
  Br  Br31  1  0.86215357  0.95305045  0.58696928  1
