# generated using pymatgen
data_LiBr
_symmetry_space_group_name_H-M   'P 1'
_cell_length_a   3.89714712
_cell_length_b   3.89704371
_cell_length_c   10.97941161
_cell_angle_alpha   89.98288257
_cell_angle_beta   89.96108465
_cell_angle_gamma   89.99754381
_symmetry_Int_Tables_number   1
_chemical_formula_structural   LiBr
_chemical_formula_sum   'Li4 Br4'
_cell_volume   166.74815018
_cell_formula_units_Z   4
loop_
 _symmetry_equiv_pos_site_id
 _symmetry_equiv_pos_as_xyz
  1  'x, y, z'
loop_
 _atom_site_type_symbol
 _atom_site_label
 _atom_site_symmetry_multiplicity
 _atom_site_fract_x
 _atom_site_fract_y
 _atom_site_fract_z
 _atom_site_occupancy
  Li  Li0  1  0.00424125  0.49916088  0.04848280  1
  Li  Li1  1  0.49921058  -0.00421920  0.79845365  1
  Li  Li2  1  -0.00419639  0.50087159  0.54850886  1
  Li  Li3  1  0.50078023  0.00420171  0.29853558  1
  Br  Br4  1  0.49940222  -0.00027455  0.54824048  1
  Br  Br5  1  -0.00038580  0.50060602  0.29831107  1
  Br  Br6  1  0.50054369  0.00020279  0.04837153  1
  Br  Br7  1  0.00040421  0.49945076  0.79843371  1
