# generated using pymatgen
data_NaI
_symmetry_space_group_name_H-M   'P 1'
_cell_length_a   4.60457699
_cell_length_b   9.25701969
_cell_length_c   7.91493016
_cell_angle_alpha   89.99970152
_cell_angle_beta   124.95562960
_cell_angle_gamma   89.99979485
_symmetry_Int_Tables_number   1
_chemical_formula_structural   NaI
_chemical_formula_sum   'Na4 I4'
_cell_volume   276.50808466
_cell_formula_units_Z   4
loop_
 _symmetry_equiv_pos_site_id
 _symmetry_equiv_pos_as_xyz
  1  'x, y, z'
loop_
 _atom_site_type_symbol
 _atom_site_label
 _atom_site_symmetry_multiplicity
 _atom_site_fract_x
 _atom_site_fract_y
 _atom_site_fract_z
 _atom_site_occupancy
  Na  Na0  1  -0.00027063  0.62170570  0.25013212  1
  Na  Na1  1  0.00026856  0.12170573  0.24986673  1
  Na  Na2  1  0.00027094  0.37829427  0.74986789  1
  Na  Na3  1  -0.00026893  0.87829429  0.75013260  1
  I  I4  1  0.50007759  0.87265599  0.25002647  1
  I  I5  1  0.49992102  0.37265557  0.24997451  1
  I  I6  1  0.49992236  0.12734416  0.74997370  1
  I  I7  1  0.50007910  0.62734430  0.75002598  1
