# generated using pymatgen
data_NaI
_symmetry_space_group_name_H-M   'P 1'
_cell_length_a   9.23188280
_cell_length_b   5.60488309
_cell_length_c   6.51804759
_cell_angle_alpha   90.07733083
_cell_angle_beta   90.00143881
_cell_angle_gamma   89.99855755
_symmetry_Int_Tables_number   1
_chemical_formula_structural   NaI
_chemical_formula_sum   'Na4 I4'
_cell_volume   337.26709526
_cell_formula_units_Z   4
loop_
 _symmetry_equiv_pos_site_id
 _symmetry_equiv_pos_as_xyz
  1  'x, y, z'
loop_
 _atom_site_type_symbol
 _atom_site_label
 _atom_site_symmetry_multiplicity
 _atom_site_fract_x
 _atom_site_fract_y
 _atom_site_fract_z
 _atom_site_occupancy
  Na  Na0  1  0.91717370  0.24865332  0.45929864  1
  Na  Na1  1  0.41716170  0.75134682  0.45925753  1
  Na  Na2  1  0.08283303  0.75136506  -0.04070136  1
  Na  Na3  1  0.58284521  0.24863149  -0.04069896  1
  I  I4  1  0.07596986  0.74938667  0.45922523  1
  I  I5  1  0.57598372  0.25064819  0.45923497  1
  I  I6  1  0.92400519  0.25058438  -0.04080341  1
  I  I7  1  0.42402759  0.74938408  -0.04082313  1
