# generated using pymatgen
data_KBr
_symmetry_space_group_name_H-M   'P 1'
_cell_length_a   7.97653216
_cell_length_b   4.63198529
_cell_length_c   8.22376751
_cell_angle_alpha   89.99999975
_cell_angle_beta   89.99997314
_cell_angle_gamma   89.99996671
_symmetry_Int_Tables_number   1
_chemical_formula_structural   KBr
_chemical_formula_sum   'K4 Br4'
_cell_volume   303.84501508
_cell_formula_units_Z   4
loop_
 _symmetry_equiv_pos_site_id
 _symmetry_equiv_pos_as_xyz
  1  'x, y, z'
loop_
 _atom_site_type_symbol
 _atom_site_label
 _atom_site_symmetry_multiplicity
 _atom_site_fract_x
 _atom_site_fract_y
 _atom_site_fract_z
 _atom_site_occupancy
  K  K0  1  0.08453750  0.74737835  0.98765076  1
  K  K1  1  0.58453765  0.25262234  0.98765060  1
  K  K2  1  0.91546253  0.25262276  0.48765075  1
  K  K3  1  0.41546233  0.74737691  0.48765076  1
  Br  Br4  1  0.24903657  0.24784598  0.73788332  1
  Br  Br5  1  0.74903657  0.75215438  0.73788300  1
  Br  Br6  1  0.75096334  0.75215416  0.23788334  1
  Br  Br7  1  0.25096351  0.24784512  0.23788331  1
