# generated using pymatgen
data_NaBr
_symmetry_space_group_name_H-M   'P 1'
_cell_length_a   8.40235546
_cell_length_b   7.24630294
_cell_length_c   7.22192798
_cell_angle_alpha   89.99994242
_cell_angle_beta   89.99993216
_cell_angle_gamma   89.99999934
_symmetry_Int_Tables_number   1
_chemical_formula_structural   NaBr
_chemical_formula_sum   'Na8 Br8'
_cell_volume   439.71440150
_cell_formula_units_Z   8
loop_
 _symmetry_equiv_pos_site_id
 _symmetry_equiv_pos_as_xyz
  1  'x, y, z'
loop_
 _atom_site_type_symbol
 _atom_site_label
 _atom_site_symmetry_multiplicity
 _atom_site_fract_x
 _atom_site_fract_y
 _atom_site_fract_z
 _atom_site_occupancy
  Na  Na0  1  0.62568637  0.24945568  0.50067602  1
  Na  Na1  1  0.62568611  0.25054333  0.00067280  1
  Na  Na2  1  0.12568670  0.25054393  0.49932367  1
  Na  Na3  1  0.87431339  0.75054312  0.00067322  1
  Na  Na4  1  0.37431390  0.74945659  -0.00067290  1
  Na  Na5  1  0.87431329  0.74945601  0.50067643  1
  Na  Na6  1  0.12568663  0.24945696  -0.00067312  1
  Na  Na7  1  0.37431362  0.75054441  0.49932389  1
  Br  Br8  1  0.37547797  0.41655250  0.24981957  1
  Br  Br9  1  0.37547874  0.08344704  0.74981890  1
  Br  Br10  1  0.87547829  0.08344730  0.75018088  1
  Br  Br11  1  0.12452097  0.58344683  0.74981858  1
  Br  Br12  1  0.62452126  0.91655296  0.25018108  1
  Br  Br13  1  0.12452171  0.91655274  0.24981914  1
  Br  Br14  1  0.87547900  0.41655314  0.25018143  1
  Br  Br15  1  0.62452204  0.58344747  0.75018042  1
