# generated using pymatgen
data_LiBr
_symmetry_space_group_name_H-M   'P 1'
_cell_length_a   11.45206093
_cell_length_b   11.45204225
_cell_length_c   7.97433015
_cell_angle_alpha   90.01207077
_cell_angle_beta   89.98794203
_cell_angle_gamma   120.01603491
_symmetry_Int_Tables_number   1
_chemical_formula_structural   LiBr
_chemical_formula_sum   'Li18 Br18'
_cell_volume   905.56833413
_cell_formula_units_Z   18
loop_
 _symmetry_equiv_pos_site_id
 _symmetry_equiv_pos_as_xyz
  1  'x, y, z'
loop_
 _atom_site_type_symbol
 _atom_site_label
 _atom_site_symmetry_multiplicity
 _atom_site_fract_x
 _atom_site_fract_y
 _atom_site_fract_z
 _atom_site_occupancy
  Li  Li0  1  0.12960550  0.86872466  0.71349032  1
  Li  Li1  1  0.12963892  0.26089932  0.21348952  1
  Li  Li2  1  0.46456919  0.53699776  0.88026932  1
  Li  Li3  1  0.07238192  0.53541793  0.88029596  1
  Li  Li4  1  0.79793904  0.59427680  0.04692351  1
  Li  Li5  1  0.13129954  0.26094907  0.71352099  1
  Li  Li6  1  0.07241581  0.53696677  0.38026845  1
  Li  Li7  1  0.46458267  0.92761813  0.38029676  1
  Li  Li8  1  0.73910039  0.87036050  0.71348700  1
  Li  Li9  1  0.73905052  0.86870053  0.21351860  1
  Li  Li10  1  0.46300161  0.53542972  0.38027166  1
  Li  Li11  1  0.46303414  0.92758510  0.88026911  1
  Li  Li12  1  0.40576248  0.20367260  0.04689310  1
  Li  Li13  1  0.40572442  0.20206031  0.54692152  1
  Li  Li14  1  0.13127649  0.87039551  0.21348891  1
  Li  Li15  1  0.79791912  0.20369545  0.54689293  1
  Li  Li16  1  0.79630490  0.20208234  0.04689321  1
  Li  Li17  1  0.79632988  0.59423864  0.54689421  1
  Br  Br18  1  0.54680140  0.09217878  0.62040059  1
  Br  Br19  1  0.54679993  0.45462647  0.12039315  1
  Br  Br20  1  0.24113722  0.11987635  0.78702001  1
  Br  Br21  1  0.87872802  0.75883035  0.78699937  1
  Br  Br22  1  0.57448308  0.78791776  0.95361791  1
  Br  Br23  1  -0.09214804  0.45462400  0.62038108  1
  Br  Br24  1  0.87872805  0.11986450  0.28701468  1
  Br  Br25  1  0.24116938  0.12127205  0.28699944  1
  Br  Br26  1  0.54537446  0.45319871  0.62039260  1
  Br  Br27  1  0.54537524  0.09214813  0.12038018  1
  Br  Br28  1  0.88012400  0.75886385  0.28701979  1
  Br  Br29  1  0.88013479  0.12127068  0.78701481  1
  Br  Br30  1  0.21208656  0.78653882  0.95362603  1
  Br  Br31  1  0.21208090  0.42551554  0.45361924  1
  Br  Br32  1  -0.09217958  0.45319938  0.12040156  1
  Br  Br33  1  0.57443985  0.78653093  0.45364303  1
  Br  Br34  1  0.21346738  0.42555864  0.95364390  1
  Br  Br35  1  0.21346085  0.78791391  0.45362608  1
