# generated using pymatgen
data_LiI
_symmetry_space_group_name_H-M   'P 1'
_cell_length_a   4.70893979
_cell_length_b   4.70887630
_cell_length_c   10.05062501
_cell_angle_alpha   89.99938886
_cell_angle_beta   90.00121358
_cell_angle_gamma   119.99868888
_symmetry_Int_Tables_number   1
_chemical_formula_structural   LiI
_chemical_formula_sum   'Li3 I3'
_cell_volume   193.00557725
_cell_formula_units_Z   3
loop_
 _symmetry_equiv_pos_site_id
 _symmetry_equiv_pos_as_xyz
  1  'x, y, z'
loop_
 _atom_site_type_symbol
 _atom_site_label
 _atom_site_symmetry_multiplicity
 _atom_site_fract_x
 _atom_site_fract_y
 _atom_site_fract_z
 _atom_site_occupancy
  Li  Li0  1  0.33010345  0.33391466  0.00986748  1
  Li  Li1  1  0.66609036  -0.00382684  0.67652722  1
  Li  Li2  1  0.00381794  0.66990610  0.34317696  1
  I  I3  1  -0.00312250  0.66681569  0.07146939  1
  I  I4  1  0.33318158  0.33007317  0.73815324  1
  I  I5  1  0.66992915  0.00311722  0.40481141  1
