# generated using pymatgen
data_KBr
_symmetry_space_group_name_H-M   'P 1'
_cell_length_a   8.19615698
_cell_length_b   4.74654865
_cell_length_c   9.47609881
_cell_angle_alpha   90.00002421
_cell_angle_beta   125.08975321
_cell_angle_gamma   89.99997366
_symmetry_Int_Tables_number   1
_chemical_formula_structural   KBr
_chemical_formula_sum   'K4 Br4'
_cell_volume   301.65126164
_cell_formula_units_Z   4
loop_
 _symmetry_equiv_pos_site_id
 _symmetry_equiv_pos_as_xyz
  1  'x, y, z'
loop_
 _atom_site_type_symbol
 _atom_site_label
 _atom_site_symmetry_multiplicity
 _atom_site_fract_x
 _atom_site_fract_y
 _atom_site_fract_z
 _atom_site_occupancy
  K  K0  1  0.02279399  0.99847704  0.54384789  1
  K  K1  1  0.52279398  0.49847702  0.54384788  1
  K  K2  1  0.02279368  0.00152312  0.04384791  1
  K  K3  1  0.52279369  0.50152310  0.04384792  1
  Br  Br4  1  0.52263790  0.99983635  0.79409101  1
  Br  Br5  1  0.02263790  0.49983638  0.79409100  1
  Br  Br6  1  0.52263792  0.00016347  0.29409082  1
  Br  Br7  1  0.02263793  0.50016351  0.29409082  1
