# generated using pymatgen
data_LiBr
_symmetry_space_group_name_H-M   'P 1'
_cell_length_a   16.21017681
_cell_length_b   16.21017082
_cell_length_c   9.17436704
_cell_angle_alpha   89.99686278
_cell_angle_beta   90.00316441
_cell_angle_gamma   120.01553009
_symmetry_Int_Tables_number   1
_chemical_formula_structural   LiBr
_chemical_formula_sum   'Li36 Br36'
_cell_volume   2087.44047686
_cell_formula_units_Z   36
loop_
 _symmetry_equiv_pos_site_id
 _symmetry_equiv_pos_as_xyz
  1  'x, y, z'
loop_
 _atom_site_type_symbol
 _atom_site_label
 _atom_site_symmetry_multiplicity
 _atom_site_fract_x
 _atom_site_fract_y
 _atom_site_fract_z
 _atom_site_occupancy
  Li  Li0  1  0.44767223  0.52693814  0.85054383  1
  Li  Li1  1  0.25411501  0.11438404  0.81612222  1
  Li  Li2  1  0.74592049  0.86021989  0.68384291  1
  Li  Li3  1  0.74588503  0.88561624  0.18387760  1
  Li  Li4  1  0.58749806  0.78097370  0.48279443  1
  Li  Li5  1  0.41251929  0.19343974  0.01718632  1
  Li  Li6  1  0.80655986  0.58748058  0.51718648  1
  Li  Li7  1  0.86022050  0.74592095  0.81615757  1
  Li  Li8  1  0.19344077  0.41251980  0.48281369  1
  Li  Li9  1  0.47310561  0.92074937  0.85054652  1
  Li  Li10  1  0.41250193  0.21902671  0.51720573  1
  Li  Li11  1  0.86023073  0.11436430  0.31614442  1
  Li  Li12  1  0.13976919  0.88563562  0.68385565  1
  Li  Li13  1  0.44768991  0.92076798  0.35058180  1
  Li  Li14  1  0.58748039  0.80655944  -0.01718638  1
  Li  Li15  1  0.13977966  0.25407916  0.18384253  1
  Li  Li16  1  0.52689450  0.07925062  0.14945343  1
  Li  Li17  1  0.25407956  0.13977997  0.31615700  1
  Li  Li18  1  0.21903676  0.80651019  0.48280721  1
  Li  Li19  1  0.78097320  0.58749822  0.01720511  1
  Li  Li20  1  0.07923283  0.55230981  0.85058175  1
  Li  Li21  1  0.78096313  0.19348977  0.51719275  1
  Li  Li22  1  0.21902684  0.41250237  -0.01720507  1
  Li  Li23  1  0.92076727  0.44768963  0.14941805  1
  Li  Li24  1  0.55232824  0.47305967  0.14945760  1
  Li  Li25  1  0.55231054  0.07923234  0.64941805  1
  Li  Li26  1  0.88563617  0.13976976  0.81614451  1
  Li  Li27  1  0.11438385  0.25411512  0.68387723  1
  Li  Li28  1  0.11436437  0.86023075  0.18385550  1
  Li  Li29  1  0.88561596  0.74588526  0.31612242  1
  Li  Li30  1  0.07925092  0.52689472  0.35054672  1
  Li  Li31  1  0.80651025  0.21903710  0.01719310  1
  Li  Li32  1  0.19349019  0.78096349  -0.01719321  1
  Li  Li33  1  0.92074914  0.47310489  0.64945357  1
  Li  Li34  1  0.47305997  0.55232827  0.35054232  1
  Li  Li35  1  0.52693804  0.44767222  0.64945608  1
  Br  Br36  1  0.57486633  0.72394140  0.22851451  1
  Br  Br37  1  0.18425221  0.24147651  0.43809483  1
  Br  Br38  1  0.81570952  0.05721555  0.06190997  1
  Br  Br39  1  0.81574798  0.75852374  0.56190528  1
  Br  Br40  1  0.51755181  0.90814613  0.10477103  1
  Br  Br41  1  0.48240760  0.39058035  0.39523966  1
  Br  Br42  1  0.60941846  0.51759131  0.89524016  1
  Br  Br43  1  0.05721556  0.81570960  0.43808994  1
  Br  Br44  1  0.39058061  0.48240773  0.10476033  1
  Br  Br45  1  0.27607812  0.85094492  0.22854760  1
  Br  Br46  1  0.48244834  0.09185403  0.89522887  1
  Br  Br47  1  0.05723393  0.24149941  0.93811414  1
  Br  Br48  1  0.94276616  0.75850089  0.06188588  1
  Br  Br49  1  0.57484855  0.85091836  0.72853926  1
  Br  Br50  1  0.51759136  0.60941874  0.60475981  1
  Br  Br51  1  0.94278451  0.18429058  0.56190992  1
  Br  Br52  1  0.72392199  0.14905516  0.77145231  1
  Br  Br53  1  0.18429058  0.94278461  0.93808995  1
  Br  Br54  1  0.09182697  0.60940476  0.10479461  1
  Br  Br55  1  0.90814650  0.51755225  0.39522931  1
  Br  Br56  1  0.14908198  0.42515201  0.22853961  1
  Br  Br57  1  0.90817304  0.39059524  0.89520513  1
  Br  Br58  1  0.09185373  0.48244775  0.60477093  1
  Br  Br59  1  0.85091806  0.57484831  0.77146093  1
  Br  Br60  1  0.42513349  0.27605877  0.77148577  1
  Br  Br61  1  0.42515153  0.14908152  0.27146064  1
  Br  Br62  1  0.75850097  0.94276624  0.43811448  1
  Br  Br63  1  0.24147665  0.18425251  0.06190488  1
  Br  Br64  1  0.24149922  0.05723389  0.56188565  1
  Br  Br65  1  0.75852343  0.81574757  0.93809532  1
  Br  Br66  1  0.14905507  0.72392174  0.72854727  1
  Br  Br67  1  0.60940474  0.09182709  0.39520496  1
  Br  Br68  1  0.39059550  0.90817319  0.60479485  1
  Br  Br69  1  0.85094508  0.27607838  0.27145259  1
  Br  Br70  1  0.27605868  0.42513348  0.72851471  1
  Br  Br71  1  0.72394141  0.57486646  0.27148549  1
