# generated using pymatgen
data_LiI
_symmetry_space_group_name_H-M   'P 1'
_cell_length_a   7.33700266
_cell_length_b   6.98975033
_cell_length_c   8.47535695
_cell_angle_alpha   89.99974510
_cell_angle_beta   90.00008149
_cell_angle_gamma   89.99974781
_symmetry_Int_Tables_number   1
_chemical_formula_structural   LiI
_chemical_formula_sum   'Li8 I8'
_cell_volume   434.64865261
_cell_formula_units_Z   8
loop_
 _symmetry_equiv_pos_site_id
 _symmetry_equiv_pos_as_xyz
  1  'x, y, z'
loop_
 _atom_site_type_symbol
 _atom_site_label
 _atom_site_symmetry_multiplicity
 _atom_site_fract_x
 _atom_site_fract_y
 _atom_site_fract_z
 _atom_site_occupancy
  Li  Li0  1  0.74806099  0.50124269  0.62359222  1
  Li  Li1  1  0.74806427  -0.00124569  0.12358855  1
  Li  Li2  1  0.24806256  -0.00124151  0.37641399  1
  Li  Li3  1  0.75193483  0.49875366  0.12358726  1
  Li  Li4  1  0.25193857  0.00124586  0.87640961  1
  Li  Li5  1  0.75193652  0.00124270  0.62358807  1
  Li  Li6  1  0.24806300  0.50124451  0.87641064  1
  Li  Li7  1  0.25193883  0.49875676  0.37641028  1
  I  I8  1  0.41701547  0.25048332  0.12507364  1
  I  I9  1  0.41701449  0.24951500  0.62507304  1
  I  I10  1  0.91701479  0.24951788  0.87492626  1
  I  I11  1  0.08298608  0.74951645  0.62507434  1
  I  I12  1  0.58298523  0.75048464  0.37492705  1
  I  I13  1  0.08298589  0.75048301  0.12507295  1
  I  I14  1  0.91701354  0.25048390  0.37492603  1
  I  I15  1  0.58298493  0.74951682  0.87492607  1
