# generated using pymatgen
data_LiBr
_symmetry_space_group_name_H-M   'P 1'
_cell_length_a   7.46169947
_cell_length_b   7.46153743
_cell_length_c   3.98940384
_cell_angle_alpha   90.00019073
_cell_angle_beta   90.00045892
_cell_angle_gamma   90.02323412
_symmetry_Int_Tables_number   1
_chemical_formula_structural   LiBr
_chemical_formula_sum   'Li4 Br4'
_cell_volume   222.11303212
_cell_formula_units_Z   4
loop_
 _symmetry_equiv_pos_site_id
 _symmetry_equiv_pos_as_xyz
  1  'x, y, z'
loop_
 _atom_site_type_symbol
 _atom_site_label
 _atom_site_symmetry_multiplicity
 _atom_site_fract_x
 _atom_site_fract_y
 _atom_site_fract_z
 _atom_site_occupancy
  Li  Li0  1  0.07957733  0.66189753  0.44033964  1
  Li  Li1  1  0.66185765  -0.07946855  0.69028905  1
  Li  Li2  1  -0.07957875  0.33810068  -0.05967977  1
  Li  Li3  1  0.33814281  0.07946910  0.19028461  1
  Br  Br4  1  0.86102438  0.67410217  0.93192419  1
  Br  Br5  1  0.67420755  0.13907989  0.18195652  1
  Br  Br6  1  0.13897568  0.32589740  0.43191921  1
  Br  Br7  1  0.32579335  0.86092177  0.68195028  1
