# generated using pymatgen
data_LiBr
_symmetry_space_group_name_H-M   'P 1'
_cell_length_a   10.05063012
_cell_length_b   10.05023949
_cell_length_c   8.44119113
_cell_angle_alpha   90.00001976
_cell_angle_beta   90.00001717
_cell_angle_gamma   89.99987342
_symmetry_Int_Tables_number   1
_chemical_formula_structural   LiBr
_chemical_formula_sum   'Li16 Br16'
_cell_volume   852.65518173
_cell_formula_units_Z   16
loop_
 _symmetry_equiv_pos_site_id
 _symmetry_equiv_pos_as_xyz
  1  'x, y, z'
loop_
 _atom_site_type_symbol
 _atom_site_label
 _atom_site_symmetry_multiplicity
 _atom_site_fract_x
 _atom_site_fract_y
 _atom_site_fract_z
 _atom_site_occupancy
  Li  Li0  1  0.00079868  0.33091188  0.79595378  1
  Li  Li1  1  0.83087219  0.00083228  0.04592515  1
  Li  Li2  1  0.99920049  0.33091230  0.29595400  1
  Li  Li3  1  0.99920123  0.66908785  0.79595397  1
  Li  Li4  1  0.16912748  0.99916778  0.04592521  1
  Li  Li5  1  0.66912737  0.50083279  0.04592490  1
  Li  Li6  1  0.33087265  0.49916710  0.04592529  1
  Li  Li7  1  0.16912832  0.00083550  0.54592505  1
  Li  Li8  1  0.83087172  0.99916434  0.54592539  1
  Li  Li9  1  0.49920257  0.16908749  0.29595451  1
  Li  Li10  1  0.66912898  0.49916398  0.54592490  1
  Li  Li11  1  0.50079759  0.83091248  0.29595415  1
  Li  Li12  1  0.33087123  0.50083613  0.54592478  1
  Li  Li13  1  0.49919978  0.83091252  0.79595386  1
  Li  Li14  1  0.50080019  0.16908760  0.79595352  1
  Li  Li15  1  0.00079940  0.66908786  0.29595374  1
  Br  Br16  1  0.49916086  0.69156274  0.04598329  1
  Br  Br17  1  0.19156886  0.49916787  0.29599744  1
  Br  Br18  1  0.50083979  0.69156204  0.54598336  1
  Br  Br19  1  0.50083922  0.30843713  0.04598367  1
  Br  Br20  1  0.80843114  0.50083226  0.29599751  1
  Br  Br21  1  0.30843126  0.99917040  0.29599800  1
  Br  Br22  1  0.69156877  0.00082965  0.29599798  1
  Br  Br23  1  0.80843117  0.49916880  0.79599857  1
  Br  Br24  1  0.19156889  0.50083103  0.79599839  1
  Br  Br25  1  0.00084111  0.80843749  0.54598360  1
  Br  Br26  1  0.30843128  0.00083370  0.79599848  1
  Br  Br27  1  0.99915898  0.19156242  0.54598323  1
  Br  Br28  1  0.69156861  0.99916649  0.79599823  1
  Br  Br29  1  0.00083705  0.19156257  0.04598332  1
  Br  Br30  1  0.99916279  0.80843744  0.04598345  1
  Br  Br31  1  0.49916034  0.30843808  0.54598361  1
