# generated using pymatgen
data_LiBr
_symmetry_space_group_name_H-M   'P 1'
_cell_length_a   3.86709752
_cell_length_b   6.65122974
_cell_length_c   6.46036593
_cell_angle_alpha   90.00000530
_cell_angle_beta   90.00002379
_cell_angle_gamma   90.00000014
_symmetry_Int_Tables_number   1
_chemical_formula_structural   LiBr
_chemical_formula_sum   'Li4 Br4'
_cell_volume   166.16677501
_cell_formula_units_Z   4
loop_
 _symmetry_equiv_pos_site_id
 _symmetry_equiv_pos_as_xyz
  1  'x, y, z'
loop_
 _atom_site_type_symbol
 _atom_site_label
 _atom_site_symmetry_multiplicity
 _atom_site_fract_x
 _atom_site_fract_y
 _atom_site_fract_z
 _atom_site_occupancy
  Li  Li0  1  0.24859597  -0.00059806  0.50095765  1
  Li  Li1  1  0.75140410  0.49940238  0.99904234  1
  Li  Li2  1  0.25140252  0.00059759  0.00095770  1
  Li  Li3  1  0.74859756  0.50059792  0.49904231  1
  Br  Br4  1  0.24990623  0.33292420  0.74963025  1
  Br  Br5  1  0.75009370  0.83292414  0.75036951  1
  Br  Br6  1  0.25009364  0.66707594  0.24963032  1
  Br  Br7  1  0.74990627  0.16707588  0.25036993  1
