# generated using pymatgen
data_LiBr
_symmetry_space_group_name_H-M   'P 1'
_cell_length_a   7.19777310
_cell_length_b   4.34155460
_cell_length_c   6.99218700
_cell_angle_alpha   90.00033683
_cell_angle_beta   89.99808080
_cell_angle_gamma   89.99998722
_symmetry_Int_Tables_number   1
_chemical_formula_structural   LiBr
_chemical_formula_sum   'Li4 Br4'
_cell_volume   218.50252150
_cell_formula_units_Z   4
loop_
 _symmetry_equiv_pos_site_id
 _symmetry_equiv_pos_as_xyz
  1  'x, y, z'
loop_
 _atom_site_type_symbol
 _atom_site_label
 _atom_site_symmetry_multiplicity
 _atom_site_fract_x
 _atom_site_fract_y
 _atom_site_fract_z
 _atom_site_occupancy
  Li  Li0  1  0.59511976  0.49990979  0.09706031  1
  Li  Li1  1  0.40487932  -0.00009316  0.40293736  1
  Li  Li2  1  0.90486505  0.50009347  0.59705523  1
  Li  Li3  1  0.09513385  0.00009091  0.90294834  1
  Br  Br4  1  0.42101433  0.00030255  0.03276934  1
  Br  Br5  1  0.57898658  0.50030297  0.46722888  1
  Br  Br6  1  0.07899259  -0.00030372  0.53276877  1
  Br  Br7  1  0.92100852  0.49969719  0.96723177  1
