# generated using pymatgen
data_LiBr
_symmetry_space_group_name_H-M   'P 1'
_cell_length_a   11.88584476
_cell_length_b   11.88591892
_cell_length_c   7.32800962
_cell_angle_alpha   90.00042880
_cell_angle_beta   89.99922139
_cell_angle_gamma   120.00365502
_symmetry_Int_Tables_number   1
_chemical_formula_structural   LiBr
_chemical_formula_sum   'Li18 Br18'
_cell_volume   896.52722673
_cell_formula_units_Z   18
loop_
 _symmetry_equiv_pos_site_id
 _symmetry_equiv_pos_as_xyz
  1  'x, y, z'
loop_
 _atom_site_type_symbol
 _atom_site_label
 _atom_site_symmetry_multiplicity
 _atom_site_fract_x
 _atom_site_fract_y
 _atom_site_fract_z
 _atom_site_occupancy
  Li  Li0  1  0.37482455  0.50033073  0.47060048  1
  Li  Li1  1  0.37482543  0.87448409  0.97057363  1
  Li  Li2  1  0.83299926  0.29183938  0.63726624  1
  Li  Li3  1  0.45883932  0.16700665  0.63724681  1
  Li  Li4  1  0.16632837  0.20782964  0.80390843  1
  Li  Li5  1  0.49966211  0.87449578  0.47057766  1
  Li  Li6  1  0.45884939  0.29183892  0.13724269  1
  Li  Li7  1  0.83299476  0.54116204  0.13724092  1
  Li  Li8  1  0.12551538  0.62517323  0.47057774  1
  Li  Li9  1  0.12550458  0.50033935  0.97057858  1
  Li  Li10  1  0.70815905  0.16699876  0.13726321  1
  Li  Li11  1  0.70816003  0.54115089  0.63724067  1
  Li  Li12  1  0.79218245  0.95850650  0.80391237  1
  Li  Li13  1  0.79216960  0.83367136  0.30391231  1
  Li  Li14  1  0.49966860  0.62517415  0.97059619  1
  Li  Li15  1  0.16633616  0.95850810  0.30393044  1
  Li  Li16  1  0.04149124  0.83366437  0.80392987  1
  Li  Li17  1  0.04149303  0.20781898  0.30390644  1
  Br  Br18  1  0.20829369  0.16662183  0.13610835  1
  Br  Br19  1  0.20829178  0.04167204  0.63610935  1
  Br  Br20  1  0.16671211  0.45837288  0.30277436  1
  Br  Br21  1  0.29166384  0.83329054  0.30278571  1
  Br  Br22  1  0.50004448  0.37500356  0.46945116  1
  Br  Br23  1  0.83337562  0.04166939  0.13611968  1
  Br  Br24  1  0.29165899  0.45837230  0.80277819  1
  Br  Br25  1  0.16670900  0.70833730  0.80278675  1
  Br  Br26  1  0.95832704  0.79170782  0.13611053  1
  Br  Br27  1  0.95833140  0.16662423  0.63611773  1
  Br  Br28  1  0.54162960  0.83329011  0.80277609  1
  Br  Br29  1  0.54162630  0.70834039  0.30277585  1
  Br  Br30  1  0.62499270  0.12504141  0.46944203  1
  Br  Br31  1  0.62499595  0.49995645  0.96945226  1
  Br  Br32  1  0.83337853  0.79170728  0.63610872  1
  Br  Br33  1  0.50004691  0.12503984  0.96944238  1
  Br  Br34  1  0.87495827  0.49995221  0.46944083  1
  Br  Br35  1  0.87496050  0.37500751  0.96944447  1
