# generated using pymatgen
data_KI
_symmetry_space_group_name_H-M   'P 1'
_cell_length_a   8.68122785
_cell_length_b   4.38362171
_cell_length_c   8.67137921
_cell_angle_alpha   90.00030480
_cell_angle_beta   90.00000049
_cell_angle_gamma   89.99998468
_symmetry_Int_Tables_number   1
_chemical_formula_structural   KI
_chemical_formula_sum   'K4 I4'
_cell_volume   329.99123364
_cell_formula_units_Z   4
loop_
 _symmetry_equiv_pos_site_id
 _symmetry_equiv_pos_as_xyz
  1  'x, y, z'
loop_
 _atom_site_type_symbol
 _atom_site_label
 _atom_site_symmetry_multiplicity
 _atom_site_fract_x
 _atom_site_fract_y
 _atom_site_fract_z
 _atom_site_occupancy
  K  K0  1  0.00024939  -0.00268643  0.94003798  1
  K  K1  1  0.50024924  0.00268627  0.94003825  1
  K  K2  1  0.99975036  0.00268778  0.44003821  1
  K  K3  1  0.49975095  -0.00268783  0.44003820  1
  I  I4  1  0.24892202  0.50877474  0.69034842  1
  I  I5  1  0.74892207  0.49122544  0.69034928  1
  I  I6  1  0.75107795  0.49122537  0.19034925  1
  I  I7  1  0.25107802  0.50877466  0.19034849  1
