# generated using pymatgen
data_KBr
_symmetry_space_group_name_H-M   'P 1'
_cell_length_a   7.96383407
_cell_length_b   4.63944809
_cell_length_c   8.21686929
_cell_angle_alpha   89.99982915
_cell_angle_beta   90.00004591
_cell_angle_gamma   90.00000255
_symmetry_Int_Tables_number   1
_chemical_formula_structural   KBr
_chemical_formula_sum   'K4 Br4'
_cell_volume   303.59520026
_cell_formula_units_Z   4
loop_
 _symmetry_equiv_pos_site_id
 _symmetry_equiv_pos_as_xyz
  1  'x, y, z'
loop_
 _atom_site_type_symbol
 _atom_site_label
 _atom_site_symmetry_multiplicity
 _atom_site_fract_x
 _atom_site_fract_y
 _atom_site_fract_z
 _atom_site_occupancy
  K  K0  1  0.91487841  0.74963555  0.50665556  1
  K  K1  1  0.41487827  0.25036492  0.50665634  1
  K  K2  1  0.08512171  0.25036467  0.00665639  1
  K  K3  1  0.58512154  0.74963501  0.00665555  1
  Br  Br4  1  0.25060051  0.75049648  0.25652792  1
  Br  Br5  1  0.75059988  0.24950342  0.25652738  1
  Br  Br6  1  0.74940015  0.24950339  0.75652745  1
  Br  Br7  1  0.24939952  0.75049656  0.75652801  1
