# generated using pymatgen
data_LiI
_symmetry_space_group_name_H-M   'P 1'
_cell_length_a   7.49173441
_cell_length_b   4.35695119
_cell_length_c   6.92072724
_cell_angle_alpha   89.99995789
_cell_angle_beta   109.88763594
_cell_angle_gamma   89.99997736
_symmetry_Int_Tables_number   1
_chemical_formula_structural   LiI
_chemical_formula_sum   'Li4 I4'
_cell_volume   212.42795428
_cell_formula_units_Z   4
loop_
 _symmetry_equiv_pos_site_id
 _symmetry_equiv_pos_as_xyz
  1  'x, y, z'
loop_
 _atom_site_type_symbol
 _atom_site_label
 _atom_site_symmetry_multiplicity
 _atom_site_fract_x
 _atom_site_fract_y
 _atom_site_fract_z
 _atom_site_occupancy
  Li  Li0  1  0.13310428  0.25034046  0.44769811  1
  Li  Li1  1  0.63310448  0.75031150  0.44770356  1
  Li  Li2  1  0.13310029  0.74965543  -0.05230273  1
  Li  Li3  1  0.63310415  0.24968644  -0.05229433  1
  I  I4  1  0.38325796  0.25005075  0.19785557  1
  I  I5  1  0.88325616  0.75006545  0.19785953  1
  I  I6  1  0.38325986  0.74995160  0.69785619  1
  I  I7  1  0.88325700  0.24993838  0.69785893  1
