# generated using pymatgen
data_KI
_symmetry_space_group_name_H-M   'P 1'
_cell_length_a   7.18834044
_cell_length_b   10.14061807
_cell_length_c   5.09063518
_cell_angle_alpha   89.99997105
_cell_angle_beta   89.99999637
_cell_angle_gamma   89.99999963
_symmetry_Int_Tables_number   1
_chemical_formula_structural   KI
_chemical_formula_sum   'K4 I4'
_cell_volume   371.07785535
_cell_formula_units_Z   4
loop_
 _symmetry_equiv_pos_site_id
 _symmetry_equiv_pos_as_xyz
  1  'x, y, z'
loop_
 _atom_site_type_symbol
 _atom_site_label
 _atom_site_symmetry_multiplicity
 _atom_site_fract_x
 _atom_site_fract_y
 _atom_site_fract_z
 _atom_site_occupancy
  K  K0  1  0.49985526  0.37689583  0.75044717  1
  K  K1  1  0.50014475  0.87689587  0.74955458  1
  K  K2  1  0.00014476  0.62310413  0.25044540  1
  K  K3  1  -0.00014474  0.12310417  0.24955285  1
  I  I4  1  -0.00010351  0.37342795  0.75049151  1
  I  I5  1  0.00010349  0.87342799  0.74950789  1
  I  I6  1  0.50010350  0.62657201  0.25049208  1
  I  I7  1  0.49989649  0.12657205  0.24950852  1
