# generated using pymatgen
data_LiBr
_symmetry_space_group_name_H-M   'P 1'
_cell_length_a   3.89654984
_cell_length_b   3.89654028
_cell_length_c   9.49776892
_cell_angle_alpha   90.00023836
_cell_angle_beta   89.99954185
_cell_angle_gamma   120.00141686
_symmetry_Int_Tables_number   1
_chemical_formula_structural   LiBr
_chemical_formula_sum   'Li3 Br3'
_cell_volume   124.88360771
_cell_formula_units_Z   3
loop_
 _symmetry_equiv_pos_site_id
 _symmetry_equiv_pos_as_xyz
  1  'x, y, z'
loop_
 _atom_site_type_symbol
 _atom_site_label
 _atom_site_symmetry_multiplicity
 _atom_site_fract_x
 _atom_site_fract_y
 _atom_site_fract_z
 _atom_site_occupancy
  Li  Li0  1  0.33239446  0.00128252  0.43838994  1
  Li  Li1  1  -0.00128674  0.33110596  0.10505752  1
  Li  Li2  1  0.66889487  0.66761824  0.77172547  1
  Br  Br3  1  0.66499954  0.66630679  0.27315629  1
  Br  Br4  1  0.33367907  -0.00131146  0.93982453  1
  Br  Br5  1  0.00131880  0.33499794  0.60649163  1
