# generated using pymatgen
data_NaI
_symmetry_space_group_name_H-M   'P 1'
_cell_length_a   7.88256909
_cell_length_b   4.56264331
_cell_length_c   7.75374578
_cell_angle_alpha   89.99823430
_cell_angle_beta   90.00538054
_cell_angle_gamma   89.99954141
_symmetry_Int_Tables_number   1
_chemical_formula_structural   NaI
_chemical_formula_sum   'Na4 I4'
_cell_volume   278.86618847
_cell_formula_units_Z   4
loop_
 _symmetry_equiv_pos_site_id
 _symmetry_equiv_pos_as_xyz
  1  'x, y, z'
loop_
 _atom_site_type_symbol
 _atom_site_label
 _atom_site_symmetry_multiplicity
 _atom_site_fract_x
 _atom_site_fract_y
 _atom_site_fract_z
 _atom_site_occupancy
  Na  Na0  1  0.74944652  0.75084451  0.36948645  1
  Na  Na1  1  0.24944515  0.24915952  0.36950460  1
  Na  Na2  1  0.25055162  0.24916664  0.86951166  1
  Na  Na3  1  0.75054890  0.75083393  0.86949197  1
  I  I4  1  0.91695263  0.25074597  0.11980280  1
  I  I5  1  0.41693748  0.74925171  0.11980930  1
  I  I6  1  0.08306587  0.74924798  0.61980985  1
  I  I7  1  0.58305184  0.25074975  0.61980437  1
