# generated using pymatgen
data_NaI
_symmetry_space_group_name_H-M   'P 1'
_cell_length_a   7.86501242
_cell_length_b   4.59422186
_cell_length_c   7.74358391
_cell_angle_alpha   89.99705913
_cell_angle_beta   90.00149973
_cell_angle_gamma   90.00779659
_symmetry_Int_Tables_number   1
_chemical_formula_structural   NaI
_chemical_formula_sum   'Na4 I4'
_cell_volume   279.80365324
_cell_formula_units_Z   4
loop_
 _symmetry_equiv_pos_site_id
 _symmetry_equiv_pos_as_xyz
  1  'x, y, z'
loop_
 _atom_site_type_symbol
 _atom_site_label
 _atom_site_symmetry_multiplicity
 _atom_site_fract_x
 _atom_site_fract_y
 _atom_site_fract_z
 _atom_site_occupancy
  Na  Na0  1  0.25068045  0.24640091  0.71914698  1
  Na  Na1  1  0.75069757  0.75358318  0.71917303  1
  Na  Na2  1  0.74931399  0.75359449  0.21916230  1
  Na  Na3  1  0.24930936  0.24641368  0.21916017  1
  I  I4  1  0.58324125  0.25289583  0.96783867  1
  I  I5  1  0.08325197  0.74712019  0.96782510  1
  I  I6  1  0.41675430  0.74710498  0.46782663  1
  I  I7  1  0.91675111  0.25288675  0.46783924  1
