# generated using pymatgen
data_LiI
_symmetry_space_group_name_H-M   'P 1'
_cell_length_a   14.81487891
_cell_length_b   4.74021710
_cell_length_c   7.89886500
_cell_angle_alpha   90.00007338
_cell_angle_beta   90.00086428
_cell_angle_gamma   89.99993657
_symmetry_Int_Tables_number   1
_chemical_formula_structural   LiI
_chemical_formula_sum   'Li8 I8'
_cell_volume   554.70365823
_cell_formula_units_Z   8
loop_
 _symmetry_equiv_pos_site_id
 _symmetry_equiv_pos_as_xyz
  1  'x, y, z'
loop_
 _atom_site_type_symbol
 _atom_site_label
 _atom_site_symmetry_multiplicity
 _atom_site_fract_x
 _atom_site_fract_y
 _atom_site_fract_z
 _atom_site_occupancy
  Li  Li0  1  0.07211893  0.50262068  0.33077194  1
  Li  Li1  1  0.07211813  -0.00261305  0.83077336  1
  Li  Li2  1  0.57211874  0.49738482  0.16922836  1
  Li  Li3  1  0.42788345  -0.00261850  0.33077596  1
  Li  Li4  1  0.92788071  0.00261209  0.16922119  1
  Li  Li5  1  0.42788156  0.50261516  0.83077719  1
  Li  Li6  1  0.57211796  0.00261965  0.66922740  1
  Li  Li7  1  0.92787996  0.49738152  0.66922245  1
  I  I8  1  0.88212892  0.50231792  0.33008507  1
  I  I9  1  0.88213024  -0.00232541  0.83008522  1
  I  I10  1  0.38213406  0.49766408  0.16991397  1
  I  I11  1  0.61787131  -0.00233135  0.33009161  1
  I  I12  1  0.11786655  0.00232199  0.16991087  1
  I  I13  1  0.61787108  0.50233554  0.83009053  1
  I  I14  1  0.38213276  0.00233411  0.66991270  1
  I  I15  1  0.11786564  0.49768076  0.66991217  1
