# generated using pymatgen
data_LiI
_symmetry_space_group_name_H-M   'P 1'
_cell_length_a   11.27595202
_cell_length_b   11.27595899
_cell_length_c   8.66022801
_cell_angle_alpha   90.00010241
_cell_angle_beta   89.99993672
_cell_angle_gamma   90.00008387
_symmetry_Int_Tables_number   1
_chemical_formula_structural   LiI
_chemical_formula_sum   'Li16 I16'
_cell_volume   1101.12350490
_cell_formula_units_Z   16
loop_
 _symmetry_equiv_pos_site_id
 _symmetry_equiv_pos_as_xyz
  1  'x, y, z'
loop_
 _atom_site_type_symbol
 _atom_site_label
 _atom_site_symmetry_multiplicity
 _atom_site_fract_x
 _atom_site_fract_y
 _atom_site_fract_z
 _atom_site_occupancy
  Li  Li0  1  0.16339097  0.00095285  0.70551370  1
  Li  Li1  1  0.50095207  0.16338994  -0.04448888  1
  Li  Li2  1  0.83661026  0.00095361  0.20551132  1
  Li  Li3  1  0.83660948  0.99904668  0.70551190  1
  Li  Li4  1  0.49904701  0.83660731  -0.04448604  1
  Li  Li5  1  0.99904607  0.66339002  -0.04448969  1
  Li  Li6  1  0.00095278  0.33661037  -0.04448846  1
  Li  Li7  1  0.49904731  0.16338974  0.45551140  1
  Li  Li8  1  0.50095231  0.83660703  0.45551347  1
  Li  Li9  1  0.33660962  0.49904723  0.20551098  1
  Li  Li10  1  0.99904740  0.33661055  0.45551183  1
  Li  Li11  1  0.66339183  0.50095267  0.20551507  1
  Li  Li12  1  0.00095276  0.66339166  0.45551026  1
  Li  Li13  1  0.33660824  0.50095333  0.70551151  1
  Li  Li14  1  0.66339166  0.49904696  0.70551425  1
  Li  Li15  1  0.16339052  0.99904693  0.20551445  1
  I  I16  1  0.00041156  0.18698873  0.20523042  1
  I  I17  1  0.68698782  0.00041125  0.45522949  1
  I  I18  1  -0.00041139  0.18698820  0.70523088  1
  I  I19  1  -0.00041059  0.81301351  0.20522943  1
  I  I20  1  0.31301277  -0.00041086  0.45523258  1
  I  I21  1  0.81301208  0.50040995  0.45523161  1
  I  I22  1  0.18698700  0.49958905  0.45522920  1
  I  I23  1  0.31301340  0.00041019  0.95523205  1
  I  I24  1  0.68698838  -0.00041051  0.95523019  1
  I  I25  1  0.49958740  0.31301289  0.70522998  1
  I  I26  1  0.81301299  0.49958821  0.95523253  1
  I  I27  1  0.50041148  0.68698810  0.70523104  1
  I  I28  1  0.18698780  0.50041066  0.95522994  1
  I  I29  1  0.49958834  0.68698799  0.20523072  1
  I  I30  1  0.50041030  0.31301375  0.20522994  1
  I  I31  1  0.00041038  0.81301200  0.70522994  1
