# generated using pymatgen
data_LiI
_symmetry_space_group_name_H-M   'P 1'
_cell_length_a   8.62976015
_cell_length_b   8.63002116
_cell_length_c   11.55988068
_cell_angle_alpha   89.99795420
_cell_angle_beta   89.99946703
_cell_angle_gamma   89.97863146
_symmetry_Int_Tables_number   1
_chemical_formula_structural   LiI
_chemical_formula_sum   'Li16 I16'
_cell_volume   860.92220036
_cell_formula_units_Z   16
loop_
 _symmetry_equiv_pos_site_id
 _symmetry_equiv_pos_as_xyz
  1  'x, y, z'
loop_
 _atom_site_type_symbol
 _atom_site_label
 _atom_site_symmetry_multiplicity
 _atom_site_fract_x
 _atom_site_fract_y
 _atom_site_fract_z
 _atom_site_occupancy
  Li  Li0  1  0.74688937  -0.00027416  0.80694620  1
  Li  Li1  1  0.49972888  0.74688634  0.05694839  1
  Li  Li2  1  0.25312623  -0.00029386  0.30694607  1
  Li  Li3  1  0.25311894  0.00027153  0.80694878  1
  Li  Li4  1  0.50026798  0.25311642  0.05694652  1
  Li  Li5  1  0.00029248  0.24687761  0.05694874  1
  Li  Li6  1  -0.00029798  0.75312547  0.05694559  1
  Li  Li7  1  0.50028677  0.74688070  0.55694846  1
  Li  Li8  1  0.49970180  0.25312442  0.55694523  1
  Li  Li9  1  0.75311715  0.50027388  0.30694945  1
  Li  Li10  1  0.00026725  0.75311548  0.55694679  1
  Li  Li11  1  0.24688858  0.49972311  0.30694690  1
  Li  Li12  1  -0.00027619  0.24688806  0.55694808  1
  Li  Li13  1  0.75312716  0.49970396  0.80694627  1
  Li  Li14  1  0.24688215  0.50029136  0.80694913  1
  Li  Li15  1  0.74688091  0.00028891  0.30694978  1
  I  I16  1  0.50048403  0.74921773  0.80681346  1
  I  I17  1  0.24921859  0.50048334  0.05681220  1
  I  I18  1  0.49951792  0.74921766  0.30681320  1
  I  I19  1  0.49951663  0.25078069  0.80681434  1
  I  I20  1  0.75077993  0.49951467  0.05681147  1
  I  I21  1  0.25078275  0.00048369  0.05681362  1
  I  I22  1  0.74921639  -0.00048107  0.05681323  1
  I  I23  1  0.75078216  0.50048261  0.55681375  1
  I  I24  1  0.24921597  0.49951794  0.55681369  1
  I  I25  1  -0.00048351  0.75078070  0.30681272  1
  I  I26  1  0.25077980  -0.00048359  0.55681214  1
  I  I27  1  0.00048406  0.24921642  0.30681221  1
  I  I28  1  0.74921830  0.00048474  0.55681251  1
  I  I29  1  -0.00048092  0.24921689  0.80681474  1
  I  I30  1  0.00048358  0.75078457  0.80681502  1
  I  I31  1  0.50048284  0.25078378  0.30681362  1
