# generated using pymatgen
data_KI
_symmetry_space_group_name_H-M   'P 1'
_cell_length_a   8.59600968
_cell_length_b   5.00416266
_cell_length_c   8.65837603
_cell_angle_alpha   90.00104087
_cell_angle_beta   90.00021632
_cell_angle_gamma   89.99790899
_symmetry_Int_Tables_number   1
_chemical_formula_structural   KI
_chemical_formula_sum   'K4 I4'
_cell_volume   372.44723711
_cell_formula_units_Z   4
loop_
 _symmetry_equiv_pos_site_id
 _symmetry_equiv_pos_as_xyz
  1  'x, y, z'
loop_
 _atom_site_type_symbol
 _atom_site_label
 _atom_site_symmetry_multiplicity
 _atom_site_fract_x
 _atom_site_fract_y
 _atom_site_fract_z
 _atom_site_occupancy
  K  K0  1  0.75005950  0.24855626  0.74581625  1
  K  K1  1  0.25006424  0.75145846  0.74580127  1
  K  K2  1  0.24993649  0.75145201  0.24580083  1
  K  K3  1  0.74995043  0.24855823  0.24581802  1
  I  I4  1  0.91608815  0.74876017  0.49503943  1
  I  I5  1  0.41608788  0.25121722  0.49506262  1
  I  I6  1  0.08390808  0.25122636  0.99506293  1
  I  I7  1  0.58390523  0.74877128  0.99503968  1
