# generated using pymatgen
data_KBr
_symmetry_space_group_name_H-M   'P 1'
_cell_length_a   9.24836818
_cell_length_b   4.32724335
_cell_length_c   8.07530010
_cell_angle_alpha   90.00000785
_cell_angle_beta   89.99993862
_cell_angle_gamma   90.00011634
_symmetry_Int_Tables_number   1
_chemical_formula_structural   KBr
_chemical_formula_sum   'K4 Br4'
_cell_volume   323.17302311
_cell_formula_units_Z   4
loop_
 _symmetry_equiv_pos_site_id
 _symmetry_equiv_pos_as_xyz
  1  'x, y, z'
loop_
 _atom_site_type_symbol
 _atom_site_label
 _atom_site_symmetry_multiplicity
 _atom_site_fract_x
 _atom_site_fract_y
 _atom_site_fract_z
 _atom_site_occupancy
  K  K0  1  0.85472149  0.61063686  0.08161806  1
  K  K1  1  0.35472149  0.38936379  0.08161847  1
  K  K2  1  0.14527896  0.38936365  0.58161813  1
  K  K3  1  0.64527839  0.61063525  0.58161850  1
  Br  Br4  1  0.13680901  0.88991881  0.27046624  1
  Br  Br5  1  0.63680896  0.11008142  0.27046553  1
  Br  Br6  1  0.86319088  0.11008063  0.77046530  1
  Br  Br7  1  0.36319082  0.88991959  0.77046524  1
