# generated using pymatgen
data_NaBr
_symmetry_space_group_name_H-M   'P 1'
_cell_length_a   14.79606915
_cell_length_b   5.07205023
_cell_length_c   14.94149875
_cell_angle_alpha   90.00071478
_cell_angle_beta   90.00300017
_cell_angle_gamma   89.70542101
_symmetry_Int_Tables_number   1
_chemical_formula_structural   NaBr
_chemical_formula_sum   'Na16 Br16'
_cell_volume   1121.29095958
_cell_formula_units_Z   16
loop_
 _symmetry_equiv_pos_site_id
 _symmetry_equiv_pos_as_xyz
  1  'x, y, z'
loop_
 _atom_site_type_symbol
 _atom_site_label
 _atom_site_symmetry_multiplicity
 _atom_site_fract_x
 _atom_site_fract_y
 _atom_site_fract_z
 _atom_site_occupancy
  Na  Na0  1  0.91060549  0.73927034  0.40839120  1
  Na  Na1  1  0.08939099  0.26074248  0.40838688  1
  Na  Na2  1  0.33904052  -0.01264086  0.65849121  1
  Na  Na3  1  0.58939088  0.26073998  0.90838674  1
  Na  Na4  1  0.83904118  -0.01263897  0.15849279  1
  Na  Na5  1  0.16095332  0.51262348  0.65849301  1
  Na  Na6  1  0.41060525  0.73926865  0.90838948  1
  Na  Na7  1  0.83904077  0.48736129  0.65849284  1
  Na  Na8  1  0.16095367  0.01262417  0.15849305  1
  Na  Na9  1  0.41060526  0.23926798  0.40838956  1
  Na  Na10  1  0.58939087  0.76073938  0.40838665  1
  Na  Na11  1  0.33904074  0.48735983  0.15849125  1
  Na  Na12  1  0.66095552  0.51262593  0.15849237  1
  Na  Na13  1  0.66095521  0.01262617  0.65849243  1
  Na  Na14  1  0.91060547  0.23926947  0.90839118  1
  Na  Na15  1  0.08939091  0.76074136  0.90838692  1
  Br  Br16  1  0.35531221  -0.00546981  0.23871479  1
  Br  Br17  1  0.64469428  0.00545967  0.23871850  1
  Br  Br18  1  0.89485966  0.24690033  0.48874417  1
  Br  Br19  1  0.14469345  0.00545764  0.73871827  1
  Br  Br20  1  0.39485893  0.24689786  0.98874350  1
  Br  Br21  1  0.60514313  0.25311514  0.48874258  1
  Br  Br22  1  0.85531256  -0.00546805  0.73871498  1
  Br  Br23  1  0.39485894  0.74689710  0.48874348  1
  Br  Br24  1  0.60514310  0.75311573  0.98874262  1
  Br  Br25  1  0.85531277  0.49453168  0.23871500  1
  Br  Br26  1  0.14469345  0.50545826  0.23871820  1
  Br  Br27  1  0.89485949  0.74689932  0.98874405  1
  Br  Br28  1  0.10514282  0.25311691  0.98874289  1
  Br  Br29  1  0.10514300  0.75311802  0.48874286  1
  Br  Br30  1  0.35531212  0.49452954  0.73871482  1
  Br  Br31  1  0.64469402  0.50545997  0.73871847  1
