# generated using pymatgen
data_NaI
_symmetry_space_group_name_H-M   'P 1'
_cell_length_a   4.61036864
_cell_length_b   7.84561054
_cell_length_c   7.74232341
_cell_angle_alpha   89.99986157
_cell_angle_beta   90.14806939
_cell_angle_gamma   90.00137990
_symmetry_Int_Tables_number   1
_chemical_formula_structural   NaI
_chemical_formula_sum   'Na4 I4'
_cell_volume   280.04785849
_cell_formula_units_Z   4
loop_
 _symmetry_equiv_pos_site_id
 _symmetry_equiv_pos_as_xyz
  1  'x, y, z'
loop_
 _atom_site_type_symbol
 _atom_site_label
 _atom_site_symmetry_multiplicity
 _atom_site_fract_x
 _atom_site_fract_y
 _atom_site_fract_z
 _atom_site_occupancy
  Na  Na0  1  0.25141539  0.25064976  0.49978385  1
  Na  Na1  1  0.74858832  0.75064884  0.00020570  1
  Na  Na2  1  0.74858462  0.74935023  0.50021615  1
  Na  Na3  1  0.25141167  0.24935119  -0.00020570  1
  I  I4  1  0.75154595  0.41659739  0.74992100  1
  I  I5  1  0.24845359  -0.08339952  0.75007972  1
  I  I6  1  0.24845405  0.58340259  0.25007900  1
  I  I7  1  0.75154641  0.08339951  0.24992028  1
