# generated using pymatgen
data_LiBr
_symmetry_space_group_name_H-M   'P 1'
_cell_length_a   15.15034940
_cell_length_b   12.78978810
_cell_length_c   3.89327599
_cell_angle_alpha   89.99922106
_cell_angle_beta   89.99874802
_cell_angle_gamma   90.00015396
_symmetry_Int_Tables_number   1
_chemical_formula_structural   LiBr
_chemical_formula_sum   'Li16 Br16'
_cell_volume   754.39914781
_cell_formula_units_Z   16
loop_
 _symmetry_equiv_pos_site_id
 _symmetry_equiv_pos_as_xyz
  1  'x, y, z'
loop_
 _atom_site_type_symbol
 _atom_site_label
 _atom_site_symmetry_multiplicity
 _atom_site_fract_x
 _atom_site_fract_y
 _atom_site_fract_z
 _atom_site_occupancy
  Li  Li0  1  0.08707579  0.82394451  0.11133763  1
  Li  Li1  1  0.91292320  0.17605897  0.11133099  1
  Li  Li2  1  0.16292506  0.07394417  0.36134986  1
  Li  Li3  1  0.41292377  0.17605582  0.61133078  1
  Li  Li4  1  0.66292379  0.07394228  0.86134505  1
  Li  Li5  1  0.33707687  0.42605559  0.36132534  1
  Li  Li6  1  0.58707588  0.82394133  0.61133855  1
  Li  Li7  1  0.66292518  0.57394240  0.36134491  1
  Li  Li8  1  0.33707641  0.92605662  0.86132956  1
  Li  Li9  1  0.58707585  0.32394350  0.11134109  1
  Li  Li10  1  0.41292280  0.67605698  0.11133372  1
  Li  Li11  1  0.16292489  0.57394356  0.86134001  1
  Li  Li12  1  0.83707765  0.42605879  0.86132520  1
  Li  Li13  1  0.83707669  0.92605851  0.36132440  1
  Li  Li14  1  0.08707610  0.32394368  0.61134092  1
  Li  Li15  1  0.91292426  0.67605914  0.61133266  1
  Br  Br16  1  0.81678046  0.60986064  0.11130258  1
  Br  Br17  1  0.18321929  0.39014149  0.11131601  1
  Br  Br18  1  0.43321928  0.85985905  0.36130559  1
  Br  Br19  1  0.68322003  0.39014133  0.61131762  1
  Br  Br20  1  0.93321985  0.85986024  0.86130406  1
  Br  Br21  1  0.06677891  0.64014346  0.36130328  1
  Br  Br22  1  0.31678108  0.60985707  0.61129872  1
  Br  Br23  1  0.93322016  0.35985719  0.36130374  1
  Br  Br24  1  0.06677968  0.14013941  0.86131629  1
  Br  Br25  1  0.31677771  0.10985699  0.11129333  1
  Br  Br26  1  0.68322017  0.89014087  0.11131579  1
  Br  Br27  1  0.43322018  0.35985524  0.86129778  1
  Br  Br28  1  0.56677875  0.64014119  0.86131292  1
  Br  Br29  1  0.56678096  0.14013969  0.36131146  1
  Br  Br30  1  0.81677843  0.10985804  0.61129755  1
  Br  Br31  1  0.18322089  0.89014226  0.61131152  1
