# generated using pymatgen
data_LiI
_symmetry_space_group_name_H-M   'P 1'
_cell_length_a   13.90503344
_cell_length_b   6.71282800
_cell_length_c   6.66236824
_cell_angle_alpha   89.99990928
_cell_angle_beta   90.00000967
_cell_angle_gamma   89.99996399
_symmetry_Int_Tables_number   1
_chemical_formula_structural   LiI
_chemical_formula_sum   'Li8 I8'
_cell_volume   621.87942808
_cell_formula_units_Z   8
loop_
 _symmetry_equiv_pos_site_id
 _symmetry_equiv_pos_as_xyz
  1  'x, y, z'
loop_
 _atom_site_type_symbol
 _atom_site_label
 _atom_site_symmetry_multiplicity
 _atom_site_fract_x
 _atom_site_fract_y
 _atom_site_fract_z
 _atom_site_occupancy
  Li  Li0  1  0.74983962  0.24998247  0.56344424  1
  Li  Li1  1  0.74984007  0.25001754  0.06344404  1
  Li  Li2  1  0.24983918  0.25001754  0.43655563  1
  Li  Li3  1  0.75015956  0.75001751  0.06344433  1
  Li  Li4  1  0.25016055  0.74998235  0.93655589  1
  Li  Li5  1  0.75016009  0.74998252  0.56344441  1
  Li  Li6  1  0.24983975  0.24998237  0.93655558  1
  Li  Li7  1  0.25016119  0.75001759  0.43655579  1
  I  I8  1  0.64479556  -0.00045399  0.31314228  1
  I  I9  1  0.64479553  0.50045416  0.81314218  1
  I  I10  1  0.14479587  0.50045493  0.68685760  1
  I  I11  1  0.85520415  0.00045431  0.81314244  1
  I  I12  1  0.35520446  0.49954482  0.18685778  1
  I  I13  1  0.85520412  0.49954615  0.31314235  1
  I  I14  1  0.14479586  -0.00045532  0.18685765  1
  I  I15  1  0.35520445  0.00045505  0.68685782  1
