# generated using pymatgen
data_NaI
_symmetry_space_group_name_H-M   'P 1'
_cell_length_a   7.88968348
_cell_length_b   7.74856869
_cell_length_c   9.11470747
_cell_angle_alpha   90.00006592
_cell_angle_beta   89.99978562
_cell_angle_gamma   90.00027290
_symmetry_Int_Tables_number   1
_chemical_formula_structural   NaI
_chemical_formula_sum   'Na8 I8'
_cell_volume   557.21628771
_cell_formula_units_Z   8
loop_
 _symmetry_equiv_pos_site_id
 _symmetry_equiv_pos_as_xyz
  1  'x, y, z'
loop_
 _atom_site_type_symbol
 _atom_site_label
 _atom_site_symmetry_multiplicity
 _atom_site_fract_x
 _atom_site_fract_y
 _atom_site_fract_z
 _atom_site_occupancy
  Na  Na0  1  0.25075387  -0.00013160  0.37193889  1
  Na  Na1  1  0.25075592  0.50012931  0.87193723  1
  Na  Na2  1  0.75075665  0.50013049  0.62806145  1
  Na  Na3  1  0.24924468  0.00012893  0.87193718  1
  Na  Na4  1  0.74924443  0.49986926  0.12806184  1
  Na  Na5  1  0.24924488  0.49986858  0.37193939  1
  Na  Na6  1  0.75075455  -0.00013039  0.12806290  1
  Na  Na7  1  0.74924466  0.00013084  0.62806108  1
  I  I8  1  0.41675983  0.24926576  0.12315698  1
  I  I9  1  0.41676028  0.25073222  0.62315692  1
  I  I10  1  0.91675910  0.25073323  0.87684215  1
  I  I11  1  0.08324020  0.75073369  0.62315741  1
  I  I12  1  0.58323934  0.74926905  0.37684374  1
  I  I13  1  0.08324027  0.74926742  0.12315726  1
  I  I14  1  0.91676064  0.24926786  0.37684283  1
  I  I15  1  0.58324071  0.75073536  0.87684274  1
