# generated using pymatgen
data_LiBr
_symmetry_space_group_name_H-M   'P 1'
_cell_length_a   15.06954876
_cell_length_b   15.06954912
_cell_length_c   15.06954607
_cell_angle_alpha   90.00000729
_cell_angle_beta   90.00000832
_cell_angle_gamma   90.00000438
_symmetry_Int_Tables_number   1
_chemical_formula_structural   LiBr
_chemical_formula_sum   'Li48 Br48'
_cell_volume   3422.16288568
_cell_formula_units_Z   48
loop_
 _symmetry_equiv_pos_site_id
 _symmetry_equiv_pos_as_xyz
  1  'x, y, z'
loop_
 _atom_site_type_symbol
 _atom_site_label
 _atom_site_symmetry_multiplicity
 _atom_site_fract_x
 _atom_site_fract_y
 _atom_site_fract_z
 _atom_site_occupancy
  Li  Li0  1  0.78545575  0.91490422  0.68410938  1
  Li  Li1  1  0.08509580  0.21454421  0.31589067  1
  Li  Li2  1  0.78545578  0.08509576  0.31589103  1
  Li  Li3  1  0.91490418  0.78545568  0.31589081  1
  Li  Li4  1  0.21454437  0.91490409  0.31589043  1
  Li  Li5  1  0.68410902  0.08509588  0.78545561  1
  Li  Li6  1  0.68410913  0.91490421  0.21454409  1
  Li  Li7  1  0.58509580  0.28545578  0.81589098  1
  Li  Li8  1  0.71454424  0.58509580  0.81589068  1
  Li  Li9  1  0.41490414  0.28545578  0.18410935  1
  Li  Li10  1  0.81589081  0.28545581  0.41490437  1
  Li  Li11  1  0.71454418  0.18410916  0.58509564  1
  Li  Li12  1  0.18410935  0.71454424  0.41490384  1
  Li  Li13  1  0.28545580  0.18410924  0.41490415  1
  Li  Li14  1  0.71454420  0.81589078  0.41490422  1
  Li  Li15  1  0.81589072  0.71454425  0.58509590  1
  Li  Li16  1  0.28545580  0.81589066  0.58509608  1
  Li  Li17  1  0.21454422  0.68410934  0.91490387  1
  Li  Li18  1  0.31589079  0.21454420  0.91490418  1
  Li  Li19  1  0.08509590  0.78545562  0.68410951  1
  Li  Li20  1  0.91490410  0.68410928  0.78545556  1
  Li  Li21  1  0.08509580  0.68410926  0.21454408  1
  Li  Li22  1  0.31589073  0.08509592  0.21454446  1
  Li  Li23  1  0.91490407  0.31589096  0.21454438  1
  Li  Li24  1  0.31589070  0.91490419  0.78545592  1
  Li  Li25  1  0.08509587  0.31589086  0.78545589  1
  Li  Li26  1  0.18410924  0.28545581  0.58509579  1
  Li  Li27  1  0.41490409  0.71454438  0.81589048  1
  Li  Li28  1  0.28545573  0.41490415  0.81589078  1
  Li  Li29  1  0.71454416  0.41490423  0.18410896  1
  Li  Li30  1  0.58509584  0.71454434  0.18410925  1
  Li  Li31  1  0.28545565  0.58509592  0.18410953  1
  Li  Li32  1  0.81589104  0.41490416  0.71454436  1
  Li  Li33  1  0.81589086  0.58509578  0.28545599  1
  Li  Li34  1  0.41490422  0.81589073  0.28545589  1
  Li  Li35  1  0.18410923  0.41490409  0.28545554  1
  Li  Li36  1  0.21454430  0.08509582  0.68410918  1
  Li  Li37  1  0.91490425  0.21454424  0.68410897  1
  Li  Li38  1  0.58509585  0.18410901  0.28545563  1
  Li  Li39  1  0.18410930  0.58509580  0.71454405  1
  Li  Li40  1  0.41490421  0.18410911  0.71454406  1
  Li  Li41  1  0.58509589  0.81589076  0.71454451  1
  Li  Li42  1  0.78545577  0.68410924  0.08509588  1
  Li  Li43  1  0.31589063  0.78545579  0.08509612  1
  Li  Li44  1  0.21454416  0.31589077  0.08509585  1
  Li  Li45  1  0.68410914  0.21454416  0.08509561  1
  Li  Li46  1  0.78545589  0.31589082  0.91490433  1
  Li  Li47  1  0.68410926  0.78545578  0.91490417  1
  Br  Br48  1  0.32501505  0.18516830  0.07988483  1
  Br  Br49  1  0.81483170  0.67498488  0.92011521  1
  Br  Br50  1  0.32501519  0.81483171  0.92011532  1
  Br  Br51  1  0.18516835  0.32501535  0.92011530  1
  Br  Br52  1  0.67498472  0.18516830  0.92011521  1
  Br  Br53  1  0.07988476  0.81483171  0.32501513  1
  Br  Br54  1  0.07988480  0.18516836  0.67498473  1
  Br  Br55  1  0.31483170  0.82501518  0.42011528  1
  Br  Br56  1  0.17498490  0.31483169  0.42011516  1
  Br  Br57  1  0.68516828  0.82501513  0.57988486  1
  Br  Br58  1  0.42011538  0.82501551  0.68516831  1
  Br  Br59  1  0.17498448  0.57988460  0.31483169  1
  Br  Br60  1  0.57988465  0.17498472  0.68516818  1
  Br  Br61  1  0.82501540  0.57988466  0.68516821  1
  Br  Br62  1  0.17498467  0.42011531  0.68516824  1
  Br  Br63  1  0.42011537  0.17498463  0.31483180  1
  Br  Br64  1  0.82501520  0.42011533  0.31483181  1
  Br  Br65  1  0.67498473  0.07988466  0.18516822  1
  Br  Br66  1  0.92011530  0.67498458  0.18516830  1
  Br  Br67  1  0.81483169  0.32501530  0.07988474  1
  Br  Br68  1  0.18516825  0.07988464  0.32501534  1
  Br  Br69  1  0.81483162  0.07988478  0.67498477  1
  Br  Br70  1  0.92011534  0.81483179  0.67498472  1
  Br  Br71  1  0.18516829  0.92011524  0.67498477  1
  Br  Br72  1  0.92011523  0.18516838  0.32501528  1
  Br  Br73  1  0.81483164  0.92011519  0.32501524  1
  Br  Br74  1  0.57988469  0.82501541  0.31483176  1
  Br  Br75  1  0.68516829  0.17498466  0.42011526  1
  Br  Br76  1  0.82501536  0.68516834  0.42011535  1
  Br  Br77  1  0.17498481  0.68516830  0.57988464  1
  Br  Br78  1  0.31483169  0.17498464  0.57988467  1
  Br  Br79  1  0.82501533  0.31483170  0.57988475  1
  Br  Br80  1  0.42011526  0.68516830  0.17498480  1
  Br  Br81  1  0.42011523  0.31483162  0.82501520  1
  Br  Br82  1  0.68516844  0.42011523  0.82501524  1
  Br  Br83  1  0.57988466  0.68516823  0.82501535  1
  Br  Br84  1  0.67498464  0.81483168  0.07988471  1
  Br  Br85  1  0.18516830  0.67498480  0.07988468  1
  Br  Br86  1  0.31483172  0.57988474  0.82501519  1
  Br  Br87  1  0.57988472  0.31483160  0.17498470  1
  Br  Br88  1  0.68516832  0.57988480  0.17498484  1
  Br  Br89  1  0.31483172  0.42011535  0.17498467  1
  Br  Br90  1  0.32501536  0.07988469  0.81483173  1
  Br  Br91  1  0.92011542  0.32501530  0.81483178  1
  Br  Br92  1  0.67498461  0.92011538  0.81483183  1
  Br  Br93  1  0.07988463  0.67498448  0.81483166  1
  Br  Br94  1  0.32501555  0.92011541  0.18516830  1
  Br  Br95  1  0.07988459  0.32501537  0.18516821  1
