# generated using pymatgen
data_LiBr
_symmetry_space_group_name_H-M   'P 1'
_cell_length_a   7.62961977
_cell_length_b   4.10487132
_cell_length_c   6.29979085
_cell_angle_alpha   89.99988980
_cell_angle_beta   90.00039933
_cell_angle_gamma   89.99999209
_symmetry_Int_Tables_number   1
_chemical_formula_structural   LiBr
_chemical_formula_sum   'Li4 Br4'
_cell_volume   197.30067587
_cell_formula_units_Z   4
loop_
 _symmetry_equiv_pos_site_id
 _symmetry_equiv_pos_as_xyz
  1  'x, y, z'
loop_
 _atom_site_type_symbol
 _atom_site_label
 _atom_site_symmetry_multiplicity
 _atom_site_fract_x
 _atom_site_fract_y
 _atom_site_fract_z
 _atom_site_occupancy
  Li  Li0  1  0.87732229  0.26273489  0.37859116  1
  Li  Li1  1  0.37732123  0.23726118  0.37858864  1
  Li  Li2  1  0.12267423  0.73726877  0.87858784  1
  Li  Li3  1  0.62267363  0.76272924  0.87858881  1
  Br  Br4  1  0.37314150  0.73762451  0.14067879  1
  Br  Br5  1  0.87313906  0.76237770  0.14067923  1
  Br  Br6  1  0.62686507  0.26237500  0.64067979  1
  Br  Br7  1  0.12686299  0.23762870  0.64068049  1
