# generated using pymatgen
data_KI
_symmetry_space_group_name_H-M   'P 1'
_cell_length_a   8.57811087
_cell_length_b   4.98704717
_cell_length_c   8.69324331
_cell_angle_alpha   90.00002449
_cell_angle_beta   89.99996225
_cell_angle_gamma   90.00001134
_symmetry_Int_Tables_number   1
_chemical_formula_structural   KI
_chemical_formula_sum   'K4 I4'
_cell_volume   371.89211183
_cell_formula_units_Z   4
loop_
 _symmetry_equiv_pos_site_id
 _symmetry_equiv_pos_as_xyz
  1  'x, y, z'
loop_
 _atom_site_type_symbol
 _atom_site_label
 _atom_site_symmetry_multiplicity
 _atom_site_fract_x
 _atom_site_fract_y
 _atom_site_fract_z
 _atom_site_occupancy
  K  K0  1  0.24827013  0.75027738  0.69006167  1
  K  K1  1  0.74827068  0.24972250  0.69006116  1
  K  K2  1  0.75172869  0.24972248  0.19006184  1
  K  K3  1  0.25172927  0.75027745  0.19006238  1
  I  I4  1  0.41624860  0.25033514  0.93999307  1
  I  I5  1  0.91624868  0.74966516  0.93999320  1
  I  I6  1  0.58375196  0.74966493  0.43999360  1
  I  I7  1  0.08375199  0.25033497  0.43999344  1
