# generated using pymatgen
data_NaI
_symmetry_space_group_name_H-M   'P 1'
_cell_length_a   7.88308943
_cell_length_b   4.55753395
_cell_length_c   7.73034566
_cell_angle_alpha   89.99991429
_cell_angle_beta   90.00007638
_cell_angle_gamma   89.99918038
_symmetry_Int_Tables_number   1
_chemical_formula_structural   NaI
_chemical_formula_sum   'Na4 I4'
_cell_volume   277.73158927
_cell_formula_units_Z   4
loop_
 _symmetry_equiv_pos_site_id
 _symmetry_equiv_pos_as_xyz
  1  'x, y, z'
loop_
 _atom_site_type_symbol
 _atom_site_label
 _atom_site_symmetry_multiplicity
 _atom_site_fract_x
 _atom_site_fract_y
 _atom_site_fract_z
 _atom_site_occupancy
  Na  Na0  1  0.74963850  0.75517775  0.91780835  1
  Na  Na1  1  0.24963884  0.24481927  0.91780788  1
  Na  Na2  1  0.25036289  0.24482004  0.41779871  1
  Na  Na3  1  0.75036282  0.75517768  0.41779903  1
  I  I4  1  0.08329892  0.74738511  0.16803308  1
  I  I5  1  0.58329913  0.25261807  0.16803284  1
  I  I6  1  -0.08330047  0.25261742  0.66803311  1
  I  I7  1  0.41669937  0.74738467  0.66803324  1
