# generated using pymatgen
data_KI
_symmetry_space_group_name_H-M   'P 1'
_cell_length_a   6.57191798
_cell_length_b   6.56580272
_cell_length_c   9.13172098
_cell_angle_alpha   89.99996657
_cell_angle_beta   110.91130664
_cell_angle_gamma   89.99988672
_symmetry_Int_Tables_number   1
_chemical_formula_structural   KI
_chemical_formula_sum   'K4 I4'
_cell_volume   368.07964744
_cell_formula_units_Z   4
loop_
 _symmetry_equiv_pos_site_id
 _symmetry_equiv_pos_as_xyz
  1  'x, y, z'
loop_
 _atom_site_type_symbol
 _atom_site_label
 _atom_site_symmetry_multiplicity
 _atom_site_fract_x
 _atom_site_fract_y
 _atom_site_fract_z
 _atom_site_occupancy
  K  K0  1  0.03512657  0.37590754  0.67303229  1
  K  K1  1  0.53512655  0.87590761  0.67303225  1
  K  K2  1  0.03512550  0.62409300  0.17303236  1
  K  K3  1  0.53512551  0.12409297  0.17303232  1
  I  I4  1  0.12167819  0.87732698  0.84776265  1
  I  I5  1  0.62167820  0.37732701  0.84776266  1
  I  I6  1  0.12167624  0.12267246  0.34776628  1
  I  I7  1  0.62167624  0.62267242  0.34776630  1
