# generated using pymatgen
data_NaBr
_symmetry_space_group_name_H-M   'P 1'
_cell_length_a   8.24394478
_cell_length_b   3.81305783
_cell_length_c   7.16049891
_cell_angle_alpha   89.99770051
_cell_angle_beta   90.00033916
_cell_angle_gamma   90.00003935
_symmetry_Int_Tables_number   1
_chemical_formula_structural   NaBr
_chemical_formula_sum   'Na4 Br4'
_cell_volume   225.08769267
_cell_formula_units_Z   4
loop_
 _symmetry_equiv_pos_site_id
 _symmetry_equiv_pos_as_xyz
  1  'x, y, z'
loop_
 _atom_site_type_symbol
 _atom_site_label
 _atom_site_symmetry_multiplicity
 _atom_site_fract_x
 _atom_site_fract_y
 _atom_site_fract_z
 _atom_site_occupancy
  Na  Na0  1  0.87551109  0.00347280  0.78567466  1
  Na  Na1  1  0.37551140  -0.00347559  0.78567544  1
  Na  Na2  1  0.12448873  -0.00348529  0.28567616  1
  Na  Na3  1  0.62448909  0.00348296  0.28567558  1
  Br  Br4  1  0.37423972  0.49361303  0.11827730  1
  Br  Br5  1  0.87423985  0.50639017  0.11827787  1
  Br  Br6  1  0.62576002  0.50640308  0.61827875  1
  Br  Br7  1  0.12576010  0.49359884  0.61827820  1
