# generated using pymatgen
data_LiBr
_symmetry_space_group_name_H-M   'P 1'
_cell_length_a   3.89169859
_cell_length_b   5.51741323
_cell_length_c   7.77310626
_cell_angle_alpha   89.99679240
_cell_angle_beta   90.00009498
_cell_angle_gamma   90.00056371
_symmetry_Int_Tables_number   1
_chemical_formula_structural   LiBr
_chemical_formula_sum   'Li4 Br4'
_cell_volume   166.90498684
_cell_formula_units_Z   4
loop_
 _symmetry_equiv_pos_site_id
 _symmetry_equiv_pos_as_xyz
  1  'x, y, z'
loop_
 _atom_site_type_symbol
 _atom_site_label
 _atom_site_symmetry_multiplicity
 _atom_site_fract_x
 _atom_site_fract_y
 _atom_site_fract_z
 _atom_site_occupancy
  Li  Li0  1  0.24930147  0.50152936  0.62571273  1
  Li  Li1  1  0.75069476  0.00153348  0.87427703  1
  Li  Li2  1  0.25070041  0.49847246  0.12572792  1
  Li  Li3  1  0.74930069  -0.00152342  0.37428349  1
  Br  Br4  1  0.25078121  -0.00004202  0.12530582  1
  Br  Br5  1  0.74922046  0.49994421  0.37464648  1
  Br  Br6  1  0.24922558  0.00005185  0.62536545  1
  Br  Br7  1  0.75077542  0.50003408  0.87468109  1
