# generated using pymatgen
data_LiBr
_symmetry_space_group_name_H-M   'P 1'
_cell_length_a   13.83043361
_cell_length_b   13.83071167
_cell_length_c   13.83077277
_cell_angle_alpha   89.99960071
_cell_angle_beta   90.00032609
_cell_angle_gamma   89.99961720
_symmetry_Int_Tables_number   1
_chemical_formula_structural   LiBr
_chemical_formula_sum   'Li48 Br48'
_cell_volume   2645.61576679
_cell_formula_units_Z   48
loop_
 _symmetry_equiv_pos_site_id
 _symmetry_equiv_pos_as_xyz
  1  'x, y, z'
loop_
 _atom_site_type_symbol
 _atom_site_label
 _atom_site_symmetry_multiplicity
 _atom_site_fract_x
 _atom_site_fract_y
 _atom_site_fract_z
 _atom_site_occupancy
  Li  Li0  1  0.70263163  0.08732554  0.09367777  1
  Li  Li1  1  0.40627582  0.20265110  0.08735796  1
  Li  Li2  1  0.59368786  0.29736898  0.08730632  1
  Li  Li3  1  0.40627333  0.79735229  0.41263984  1
  Li  Li4  1  0.59368105  0.70264295  0.41269761  1
  Li  Li5  1  0.08731182  0.40631843  0.20262873  1
  Li  Li6  1  0.91263693  0.09372996  0.20264529  1
  Li  Li7  1  0.70262933  0.91267399  0.40630526  1
  Li  Li8  1  0.20264717  0.58734028  0.59369461  1
  Li  Li9  1  0.90628313  0.70264599  0.58735007  1
  Li  Li10  1  0.90630373  0.79736127  0.08730465  1
  Li  Li11  1  0.41270021  0.09367866  0.29737809  1
  Li  Li12  1  0.90628436  0.20262964  0.41266932  1
  Li  Li13  1  0.09372226  0.70263237  0.08735167  1
  Li  Li14  1  0.09370952  0.29736650  0.41266207  1
  Li  Li15  1  0.58735319  0.40626753  0.29733700  1
  Li  Li16  1  0.41265313  0.90628432  0.20262914  1
  Li  Li17  1  0.91265264  0.40628403  0.70265044  1
  Li  Li18  1  0.08731986  0.09370464  0.70265385  1
  Li  Li19  1  0.79736499  0.91265380  0.59372395  1
  Li  Li20  1  0.29737110  0.91266400  0.90630395  1
  Li  Li21  1  0.08735744  0.59372172  0.29735866  1
  Li  Li22  1  0.91268438  0.90629672  0.29735767  1
  Li  Li23  1  0.20264841  0.08734021  0.40628238  1
  Li  Li24  1  0.20263550  0.91267769  0.09368560  1
  Li  Li25  1  0.79735238  0.58733648  0.09371930  1
  Li  Li26  1  0.58731068  0.59369988  0.20264461  1
  Li  Li27  1  0.29735437  0.41266588  0.09370920  1
  Li  Li28  1  0.29736334  0.58733874  0.40629586  1
  Li  Li29  1  0.09369272  0.79737313  0.58731650  1
  Li  Li30  1  0.90626796  0.29737799  0.91264235  1
  Li  Li31  1  0.09367047  0.20261710  0.91271564  1
  Li  Li32  1  0.58730253  0.90631607  0.70263024  1
  Li  Li33  1  0.41265672  0.59371011  0.70263499  1
  Li  Li34  1  0.58734417  0.09371330  0.79736216  1
  Li  Li35  1  0.41269392  0.40630845  0.79737509  1
  Li  Li36  1  0.79736332  0.08734091  0.90628719  1
  Li  Li37  1  0.20265764  0.41265789  0.90629725  1
  Li  Li38  1  0.70263958  0.58735308  0.90628156  1
  Li  Li39  1  0.70263558  0.41264816  0.59371653  1
  Li  Li40  1  0.29736246  0.08732989  0.59370297  1
  Li  Li41  1  0.79736225  0.41267781  0.40629890  1
  Li  Li42  1  0.59368908  0.79736152  0.91267533  1
  Li  Li43  1  0.40628586  0.70263308  0.91265530  1
  Li  Li44  1  0.59371205  0.20262110  0.58734137  1
  Li  Li45  1  0.40630751  0.29737468  0.58731700  1
  Li  Li46  1  0.91269899  0.59367631  0.79736523  1
  Li  Li47  1  0.08737354  0.90626351  0.79734885  1
  Br  Br48  1  0.19065562  0.93784763  0.63640003  1
  Br  Br49  1  0.86361209  0.69064262  0.93785504  1
  Br  Br50  1  0.13639168  0.80934090  0.93785711  1
  Br  Br51  1  0.86359754  0.30932757  0.56214002  1
  Br  Br52  1  0.13638878  0.19064091  0.56213561  1
  Br  Br53  1  0.93785644  0.86361808  0.69067637  1
  Br  Br54  1  0.06214551  0.63640761  0.69064591  1
  Br  Br55  1  0.19062505  0.06215268  0.86363172  1
  Br  Br56  1  0.69065304  0.43784106  0.13639206  1
  Br  Br57  1  0.36361263  0.19065126  0.43785333  1
  Br  Br58  1  0.36363734  0.30934767  0.93786471  1
  Br  Br59  1  0.56214144  0.63636785  0.80935848  1
  Br  Br60  1  0.36362582  0.69066675  0.56213544  1
  Br  Br61  1  0.63642348  0.19066832  0.93784390  1
  Br  Br62  1  0.63641021  0.80934057  0.56214464  1
  Br  Br63  1  0.43784452  0.86359466  0.80933626  1
  Br  Br64  1  0.56215647  0.36358932  0.69064983  1
  Br  Br65  1  0.06214281  0.86358822  0.19066390  1
  Br  Br66  1  0.93786223  0.63637049  0.19064962  1
  Br  Br67  1  0.30935180  0.06213931  0.13640241  1
  Br  Br68  1  0.80934131  0.06215915  0.36360750  1
  Br  Br69  1  0.93785505  0.13642400  0.80931605  1
  Br  Br70  1  0.06211605  0.36362781  0.80935928  1
  Br  Br71  1  0.69063534  0.93786179  0.86361813  1
  Br  Br72  1  0.69066049  0.06214742  0.63638556  1
  Br  Br73  1  0.30937059  0.43785241  0.63638142  1
  Br  Br74  1  0.43786048  0.13636045  0.69064286  1
  Br  Br75  1  0.80935926  0.56213733  0.63638011  1
  Br  Br76  1  0.80932747  0.43784398  0.86360117  1
  Br  Br77  1  0.63639667  0.30933913  0.43786325  1
  Br  Br78  1  0.36361455  0.80935193  0.06214175  1
  Br  Br79  1  0.63639888  0.69064695  0.06214876  1
  Br  Br80  1  0.43785773  0.36362377  0.19067376  1
  Br  Br81  1  0.56215032  0.13640837  0.19063471  1
  Br  Br82  1  0.43784355  0.63641596  0.30932978  1
  Br  Br83  1  0.56214295  0.86364039  0.30936759  1
  Br  Br84  1  0.30932735  0.93786263  0.36361528  1
  Br  Br85  1  0.69063038  0.56214673  0.36360866  1
  Br  Br86  1  0.19062714  0.43784741  0.36361813  1
  Br  Br87  1  0.19066429  0.56216158  0.13639367  1
  Br  Br88  1  0.80936572  0.93784990  0.13638026  1
  Br  Br89  1  0.30933557  0.56214009  0.86361164  1
  Br  Br90  1  0.13640883  0.30935714  0.06215579  1
  Br  Br91  1  0.86364113  0.19064336  0.06213143  1
  Br  Br92  1  0.13641772  0.69067154  0.43785033  1
  Br  Br93  1  0.86362863  0.80936603  0.43787046  1
  Br  Br94  1  0.06213283  0.13637215  0.30933878  1
  Br  Br95  1  0.93783928  0.36358943  0.30935222  1
