# generated using pymatgen
data_LiBr
_symmetry_space_group_name_H-M   'P 1'
_cell_length_a   10.13822301
_cell_length_b   10.13821460
_cell_length_c   12.80862464
_cell_angle_alpha   90.00877385
_cell_angle_beta   89.99119609
_cell_angle_gamma   120.00901115
_symmetry_Int_Tables_number   1
_chemical_formula_structural   LiBr
_chemical_formula_sum   'Li18 Br18'
_cell_volume   1140.03189453
_cell_formula_units_Z   18
loop_
 _symmetry_equiv_pos_site_id
 _symmetry_equiv_pos_as_xyz
  1  'x, y, z'
loop_
 _atom_site_type_symbol
 _atom_site_label
 _atom_site_symmetry_multiplicity
 _atom_site_fract_x
 _atom_site_fract_y
 _atom_site_fract_z
 _atom_site_occupancy
  Li  Li0  1  0.74932844  0.74976583  0.47457748  1
  Li  Li1  1  0.74938947  -0.00046186  0.97456556  1
  Li  Li2  1  0.58335884  0.91718879  0.64114892  1
  Li  Li3  1  0.33381433  0.41667895  0.64116756  1
  Li  Li4  1  0.91714125  0.33307114  0.80786279  1
  Li  Li5  1  0.25018496  -0.00042428  0.47459350  1
  Li  Li6  1  0.33385939  0.91714874  0.14114448  1
  Li  Li7  1  0.58332111  0.66618661  0.14116801  1
  Li  Li8  1  0.00046140  0.25061087  0.47456605  1
  Li  Li9  1  0.00042484  0.74981499  0.97459360  1
  Li  Li10  1  0.08281104  0.41664101  0.14114929  1
  Li  Li11  1  0.08285091  0.66613994  0.64114413  1
  Li  Li12  1  0.66696746  0.58409165  0.80783637  1
  Li  Li13  1  0.66692931  0.08285875  0.30786264  1
  Li  Li14  1  0.25023384  0.25067161  0.97457689  1
  Li  Li15  1  0.91719685  0.58414469  0.30784236  1
  Li  Li16  1  0.41585551  0.08280277  0.80784291  1
  Li  Li17  1  0.41590809  0.33303201  0.30783582  1
  Br  Br18  1  0.07945488  0.66717622  0.14117976  1
  Br  Br19  1  0.07943642  0.41224971  0.64120028  1
  Br  Br20  1  0.66632399  0.58770813  0.30793987  1
  Br  Br21  1  -0.07857390  0.33374921  0.30797030  1
  Br  Br22  1  0.99962057  0.74549996  0.47457213  1
  Br  Br23  1  0.33275004  0.41224780  0.14122486  1
  Br  Br24  1  -0.07858167  0.58771154  0.80795950  1
  Br  Br25  1  0.66625140  0.07857394  0.80796955  1
  Br  Br26  1  0.58775038  0.92056394  0.14119922  1
  Br  Br27  1  0.58775250  0.66725047  0.64122569  1
  Br  Br28  1  0.41229213  0.33367535  0.80793923  1
  Br  Br29  1  0.41228801  0.07858129  0.30796060  1
  Br  Br30  1  0.25449275  0.25416385  0.47455649  1
  Br  Br31  1  0.25450023  0.00038026  0.97457303  1
  Br  Br32  1  0.33282322  0.92054496  0.64118021  1
  Br  Br33  1  0.99969879  0.25415309  0.97453369  1
  Br  Br34  1  0.74584653  0.00030055  0.47453310  1
  Br  Br35  1  0.74583667  0.74550751  0.97455765  1
