# generated using pymatgen
data_LiBr
_symmetry_space_group_name_H-M   'P 1'
_cell_length_a   3.89586100
_cell_length_b   3.89585814
_cell_length_c   9.53990673
_cell_angle_alpha   90.00219258
_cell_angle_beta   89.99702721
_cell_angle_gamma   120.00034186
_symmetry_Int_Tables_number   1
_chemical_formula_structural   LiBr
_chemical_formula_sum   'Li3 Br3'
_cell_volume   125.39489377
_cell_formula_units_Z   3
loop_
 _symmetry_equiv_pos_site_id
 _symmetry_equiv_pos_as_xyz
  1  'x, y, z'
loop_
 _atom_site_type_symbol
 _atom_site_label
 _atom_site_symmetry_multiplicity
 _atom_site_fract_x
 _atom_site_fract_y
 _atom_site_fract_z
 _atom_site_occupancy
  Li  Li0  1  0.33620940  0.33872661  0.80498597  1
  Li  Li1  1  0.66130096  -0.00250461  0.13831274  1
  Li  Li2  1  0.00250126  0.66378263  0.47164986  1
  Br  Br3  1  0.33074228  0.32933539  0.30458686  1
  Br  Br4  1  0.67064779  0.00140172  0.63791082  1
  Br  Br5  1  -0.00140169  0.66925825  0.97125295  1
