# generated using pymatgen
data_LiBr
_symmetry_space_group_name_H-M   'P 1'
_cell_length_a   7.42293765
_cell_length_b   7.42294318
_cell_length_c   3.99500265
_cell_angle_alpha   90.00006568
_cell_angle_beta   89.99981326
_cell_angle_gamma   90.00001433
_symmetry_Int_Tables_number   1
_chemical_formula_structural   LiBr
_chemical_formula_sum   'Li4 Br4'
_cell_volume   220.12482382
_cell_formula_units_Z   4
loop_
 _symmetry_equiv_pos_site_id
 _symmetry_equiv_pos_as_xyz
  1  'x, y, z'
loop_
 _atom_site_type_symbol
 _atom_site_label
 _atom_site_symmetry_multiplicity
 _atom_site_fract_x
 _atom_site_fract_y
 _atom_site_fract_z
 _atom_site_occupancy
  Li  Li0  1  0.07809001  0.66323791  0.42456072  1
  Li  Li1  1  0.66323796  -0.07809100  0.67455650  1
  Li  Li2  1  -0.07808996  0.33676265  0.92455924  1
  Li  Li3  1  0.33676295  0.07809009  0.17456515  1
  Br  Br4  1  0.85960765  0.67372464  0.91890233  1
  Br  Br5  1  0.67372539  0.14039088  0.16889862  1
  Br  Br6  1  0.14039137  0.32627577  0.41890019  1
  Br  Br7  1  0.32627462  0.85960906  0.66890490  1
