# generated using pymatgen
data_LiI
_symmetry_space_group_name_H-M   'P 1'
_cell_length_a   15.18386651
_cell_length_b   15.19723747
_cell_length_c   4.55526942
_cell_angle_alpha   90.00757619
_cell_angle_beta   89.99741204
_cell_angle_gamma   89.98814555
_symmetry_Int_Tables_number   1
_chemical_formula_structural   LiI
_chemical_formula_sum   'Li16 I16'
_cell_volume   1051.14125461
_cell_formula_units_Z   16
loop_
 _symmetry_equiv_pos_site_id
 _symmetry_equiv_pos_as_xyz
  1  'x, y, z'
loop_
 _atom_site_type_symbol
 _atom_site_label
 _atom_site_symmetry_multiplicity
 _atom_site_fract_x
 _atom_site_fract_y
 _atom_site_fract_z
 _atom_site_occupancy
  Li  Li0  1  0.82952869  0.91275425  0.78615848  1
  Li  Li1  1  0.58720525  0.32953717  0.71386555  1
  Li  Li2  1  0.82952801  0.41275059  0.46378768  1
  Li  Li3  1  0.17046926  0.08725327  0.78621492  1
  Li  Li4  1  0.41278772  0.67045451  0.71386242  1
  Li  Li5  1  0.08721235  0.32954418  0.03614536  1
  Li  Li6  1  0.91279135  0.67045909  0.03614033  1
  Li  Li7  1  0.58721464  0.82954529  0.53614244  1
  Li  Li8  1  0.41279499  0.17046210  0.53613143  1
  Li  Li9  1  0.67047083  0.58724356  0.28620329  1
  Li  Li10  1  0.91279045  0.17045497  0.21385443  1
  Li  Li11  1  0.32953079  0.41274197  0.28616302  1
  Li  Li12  1  0.08720764  0.82954173  0.21385859  1
  Li  Li13  1  0.32953200  0.91275226  0.96379380  1
  Li  Li14  1  0.67047001  0.08725061  0.96383822  1
  Li  Li15  1  0.17046939  0.58725063  0.46384628  1
  I  I16  1  0.34355430  0.59172282  0.22495165  1
  I  I17  1  0.90832404  0.84356231  0.27503427  1
  I  I18  1  0.34354735  0.09170542  0.02504359  1
  I  I19  1  0.65645639  0.40830125  0.22495643  1
  I  I20  1  0.09168715  0.15642994  0.27496823  1
  I  I21  1  0.40830884  0.84356969  0.47502406  1
  I  I22  1  0.59167461  0.15643719  0.47496419  1
  I  I23  1  0.90831168  0.34357261  -0.02496673  1
  I  I24  1  0.09167922  0.65643762  -0.02502331  1
  I  I25  1  0.15645039  0.90828232  0.72495226  1
  I  I26  1  0.59168804  0.65642908  0.77497748  1
  I  I27  1  0.84355029  0.09171068  0.72494204  1
  I  I28  1  0.40832117  0.34356348  0.77502140  1
  I  I29  1  0.84354684  0.59170939  0.52504475  1
  I  I30  1  0.15644651  0.40828282  0.52505690  1
  I  I31  1  0.65644982  0.90828717  0.02504652  1
