# generated using pymatgen
data_LiBr
_symmetry_space_group_name_H-M   'P 1'
_cell_length_a   7.78937493
_cell_length_b   7.78936175
_cell_length_c   11.00490402
_cell_angle_alpha   90.00002237
_cell_angle_beta   89.99999335
_cell_angle_gamma   89.99997384
_symmetry_Int_Tables_number   1
_chemical_formula_structural   LiBr
_chemical_formula_sum   'Li16 Br16'
_cell_volume   667.71439757
_cell_formula_units_Z   16
loop_
 _symmetry_equiv_pos_site_id
 _symmetry_equiv_pos_as_xyz
  1  'x, y, z'
loop_
 _atom_site_type_symbol
 _atom_site_label
 _atom_site_symmetry_multiplicity
 _atom_site_fract_x
 _atom_site_fract_y
 _atom_site_fract_z
 _atom_site_occupancy
  Li  Li0  1  0.00066878  0.24979773  0.43997417  1
  Li  Li1  1  0.74979091  0.00067761  0.68997230  1
  Li  Li2  1  -0.00067458  0.24979227  0.93996861  1
  Li  Li3  1  -0.00066912  0.75021229  0.43997297  1
  Li  Li4  1  0.25020973  -0.00066931  0.68997022  1
  Li  Li5  1  0.75021364  0.50066817  0.68997169  1
  Li  Li6  1  0.24978466  0.49932650  0.68996758  1
  Li  Li7  1  0.25020703  0.00067031  0.18997292  1
  Li  Li8  1  0.74978834  -0.00066796  0.18997323  1
  Li  Li9  1  0.49931828  0.25020912  0.93996748  1
  Li  Li10  1  0.75021219  0.49932535  0.18997063  1
  Li  Li11  1  0.50067208  0.74978510  0.93996453  1
  Li  Li12  1  0.24978702  0.50067336  0.18996719  1
  Li  Li13  1  0.49931741  0.74978538  0.43997383  1
  Li  Li14  1  0.50067685  0.25021460  0.43996878  1
  Li  Li15  1  0.00067489  0.75020324  0.93996785  1
  Br  Br16  1  0.75005281  0.50085530  0.93983346  1
  Br  Br17  1  0.00086099  0.75004956  0.18983886  1
  Br  Br18  1  0.24995341  0.50085851  0.43984004  1
  Br  Br19  1  0.24995089  0.49914339  0.93983446  1
  Br  Br20  1  -0.00085584  0.24994891  0.18983296  1
  Br  Br21  1  0.49914652  0.25005741  0.18983668  1
  Br  Br22  1  0.50086516  0.74994756  0.18983865  1
  Br  Br23  1  -0.00085388  0.75005365  0.68983377  1
  Br  Br24  1  0.00086099  0.24995314  0.68983530  1
  Br  Br25  1  0.74994657  -0.00085728  0.43983538  1
  Br  Br26  1  0.49914447  0.74994347  0.68983800  1
  Br  Br27  1  0.25004504  0.00086200  0.43983911  1
  Br  Br28  1  0.50085931  0.25005220  0.68983813  1
  Br  Br29  1  0.74994617  0.00084993  0.93983445  1
  Br  Br30  1  0.25004435  -0.00086213  0.93983774  1
  Br  Br31  1  0.75005494  0.49914060  0.43984004  1
