# generated using pymatgen
data_LiI
_symmetry_space_group_name_H-M   'P 1'
_cell_length_a   7.34277383
_cell_length_b   4.23317151
_cell_length_c   6.96128443
_cell_angle_alpha   90.00082786
_cell_angle_beta   89.99972775
_cell_angle_gamma   89.99956107
_symmetry_Int_Tables_number   1
_chemical_formula_structural   LiI
_chemical_formula_sum   'Li4 I4'
_cell_volume   216.37914226
_cell_formula_units_Z   4
loop_
 _symmetry_equiv_pos_site_id
 _symmetry_equiv_pos_as_xyz
  1  'x, y, z'
loop_
 _atom_site_type_symbol
 _atom_site_label
 _atom_site_symmetry_multiplicity
 _atom_site_fract_x
 _atom_site_fract_y
 _atom_site_fract_z
 _atom_site_occupancy
  Li  Li0  1  0.25004968  0.25565584  0.06842449  1
  Li  Li1  1  0.75004962  0.74434211  0.06842303  1
  Li  Li2  1  0.74995158  0.74434390  0.56842314  1
  Li  Li3  1  0.24995153  0.25565854  0.56842376  1
  I  I4  1  0.91726893  0.24852999  0.81695345  1
  I  I5  1  0.41726973  0.75146548  0.81695320  1
  I  I6  1  0.08272809  0.75147135  0.31695202  1
  I  I7  1  0.58273083  0.24853279  0.31695326  1
