# generated using pymatgen
data_LiBr
_symmetry_space_group_name_H-M   'P 1'
_cell_length_a   11.53513450
_cell_length_b   11.53505785
_cell_length_c   7.93037657
_cell_angle_alpha   89.85565413
_cell_angle_beta   90.14527142
_cell_angle_gamma   119.94578116
_symmetry_Int_Tables_number   1
_chemical_formula_structural   LiBr
_chemical_formula_sum   'Li18 Br18'
_cell_volume   914.32805648
_cell_formula_units_Z   18
loop_
 _symmetry_equiv_pos_site_id
 _symmetry_equiv_pos_as_xyz
  1  'x, y, z'
loop_
 _atom_site_type_symbol
 _atom_site_label
 _atom_site_symmetry_multiplicity
 _atom_site_fract_x
 _atom_site_fract_y
 _atom_site_fract_z
 _atom_site_occupancy
  Li  Li0  1  -0.07376791  0.46268179  0.26142575  1
  Li  Li1  1  -0.07316147  0.46331019  0.76092462  1
  Li  Li2  1  0.87020763  0.74006023  0.42678645  1
  Li  Li3  1  0.86953150  0.12975822  0.42533748  1
  Li  Li4  1  0.20377606  0.79701607  0.59405013  1
  Li  Li5  1  0.53719462  0.46351755  0.25991777  1
  Li  Li6  1  0.86973818  0.73949186  0.92620008  1
  Li  Li7  1  0.87018742  0.13040485  0.92536608  1
  Li  Li8  1  0.53668298  0.07315611  0.26092482  1
  Li  Li9  1  0.53650709  0.46281852  0.75990364  1
  Li  Li10  1  0.25994523  0.12983120  0.92686529  1
  Li  Li11  1  0.26048774  0.13029143  0.42624669  1
  Li  Li12  1  0.20343321  0.40662520  0.59347266  1
  Li  Li13  1  0.20301534  0.79626104  0.09402843  1
  Li  Li14  1  0.53733757  0.07380606  0.76139891  1
  Li  Li15  1  0.20391559  0.40718732  0.09410152  1
  Li  Li16  1  0.59280463  0.79607101  0.59405066  1
  Li  Li17  1  0.59336159  0.79654118  0.09338004  1
  Br  Br18  1  0.45411349  0.90827553  0.52199889  1
  Br  Br19  1  0.45413169  0.54627366  0.01980831  1
  Br  Br20  1  0.42539449  0.21264465  0.68772631  1
  Br  Br21  1  0.78690675  0.57388700  0.68734613  1
  Br  Br22  1  0.75884729  0.87963828  0.85411978  1
  Br  Br23  1  0.09252551  0.54649977  0.52184078  1
  Br  Br24  1  0.78681532  0.21281920  0.18561601  1
  Br  Br25  1  0.42611602  0.21309450  0.18740406  1
  Br  Br26  1  0.45368288  0.54585948  0.51981202  1
  Br  Br27  1  0.45353725  0.90751027  0.02178810  1
  Br  Br28  1  0.78736216  0.57459398  0.18768055  1
  Br  Br29  1  0.78719868  0.21318972  0.68560833  1
  Br  Br30  1  0.12018187  0.87911796  0.85384544  1
  Br  Br31  1  0.12031004  0.24111807  0.35417179  1
  Br  Br32  1  0.09173118  0.54590825  0.02200173  1
  Br  Br33  1  0.75814500  0.87906353  0.35428817  1
  Br  Br34  1  0.12090018  0.24183694  0.85435928  1
  Br  Br35  1  0.12090318  0.87983936  0.35385165  1
