# generated using pymatgen
data_LiI
_symmetry_space_group_name_H-M   'P 1'
_cell_length_a   13.02990541
_cell_length_b   13.02993826
_cell_length_c   7.98664637
_cell_angle_alpha   90.00632837
_cell_angle_beta   89.99391069
_cell_angle_gamma   119.99716968
_symmetry_Int_Tables_number   1
_chemical_formula_structural   LiI
_chemical_formula_sum   'Li18 I18'
_cell_volume   1174.33252574
_cell_formula_units_Z   18
loop_
 _symmetry_equiv_pos_site_id
 _symmetry_equiv_pos_as_xyz
  1  'x, y, z'
loop_
 _atom_site_type_symbol
 _atom_site_label
 _atom_site_symmetry_multiplicity
 _atom_site_fract_x
 _atom_site_fract_y
 _atom_site_fract_z
 _atom_site_occupancy
  Li  Li0  1  0.37319262  0.49813669  0.22803474  1
  Li  Li1  1  0.37318379  0.87510344  0.72786728  1
  Li  Li2  1  0.83529661  0.29349050  0.39447907  1
  Li  Li3  1  0.45827528  0.16475891  0.39444447  1
  Li  Li4  1  0.16843017  0.20822154  0.56098639  1
  Li  Li5  1  0.50176456  0.87496768  0.22800605  1
  Li  Li6  1  0.45816364  0.29353887  0.89430802  1
  Li  Li7  1  0.83524667  0.54173857  0.89442841  1
  Li  Li8  1  0.12488925  0.62682117  0.22787656  1
  Li  Li9  1  0.12502769  0.49823085  0.72801284  1
  Li  Li10  1  0.70652314  0.16471466  0.89448864  1
  Li  Li11  1  0.70645540  0.54183860  0.39432438  1
  Li  Li12  1  0.79169221  0.96022190  0.56088387  1
  Li  Li13  1  0.79177889  0.83156662  0.06100177  1
  Li  Li14  1  0.50185939  0.62679998  0.72803548  1
  Li  Li15  1  0.16847896  0.96019380  0.06103621  1
  Li  Li16  1  0.03981477  0.83152849  0.56103367  1
  Li  Li17  1  0.03977118  0.20830084  0.06088726  1
  I  I18  1  0.95968614  0.16769600  0.39542600  1
  I  I19  1  0.95968515  0.79193929  0.89556699  1
  I  I20  1  0.16563990  0.70704809  0.56230251  1
  I  I21  1  0.54138048  0.83433668  0.56246810  1
  I  I22  1  0.49899208  0.12535934  0.72911590  1
  I  I23  1  0.83235110  0.79204084  0.39555303  1
  I  I24  1  0.54148141  0.70704534  0.06249035  1
  I  I25  1  0.16565936  0.45862203  0.06247450  1
  I  I26  1  0.20806445  0.04031761  0.39556637  1
  I  I27  1  0.20795925  0.16765095  0.89554280  1
  I  I28  1  0.29295071  0.83436028  0.06229358  1
  I  I29  1  0.29295341  0.45851640  0.56250623  1
  I  I30  1  0.87477577  0.37365195  0.72913193  1
  I  I31  1  0.87463175  0.50101489  0.22911513  1
  I  I32  1  0.83230181  0.04030831  0.89542555  1
  I  I33  1  0.49891839  0.37362440  0.22898029  1
  I  I34  1  0.62637150  0.50107090  0.72897649  1
  I  I35  1  0.62635311  0.12522360  0.22913643  1
