# generated using pymatgen
data_LiBr
_symmetry_space_group_name_H-M   'P 1'
_cell_length_a   11.00745928
_cell_length_b   11.00749449
_cell_length_c   7.23682450
_cell_angle_alpha   90.00006269
_cell_angle_beta   90.00010463
_cell_angle_gamma   89.99984811
_symmetry_Int_Tables_number   1
_chemical_formula_structural   LiBr
_chemical_formula_sum   'Li16 Br16'
_cell_volume   876.84656447
_cell_formula_units_Z   16
loop_
 _symmetry_equiv_pos_site_id
 _symmetry_equiv_pos_as_xyz
  1  'x, y, z'
loop_
 _atom_site_type_symbol
 _atom_site_label
 _atom_site_symmetry_multiplicity
 _atom_site_fract_x
 _atom_site_fract_y
 _atom_site_fract_z
 _atom_site_occupancy
  Li  Li0  1  0.37537421  0.55555543  0.80532634  1
  Li  Li1  1  0.05555387  0.37537657  0.05532936  1
  Li  Li2  1  0.62462516  0.55555434  0.30533028  1
  Li  Li3  1  0.62462580  0.44444493  0.80532971  1
  Li  Li4  1  0.94444656  0.62462319  0.05533344  1
  Li  Li5  1  0.44444471  0.87537496  0.05532856  1
  Li  Li6  1  0.55555479  0.12462446  0.05533117  1
  Li  Li7  1  0.94444575  0.37537672  0.55533201  1
  Li  Li8  1  0.05555367  0.62462274  0.55533453  1
  Li  Li9  1  0.12462409  0.94444687  0.30533442  1
  Li  Li10  1  0.44444644  0.12462446  0.55533360  1
  Li  Li11  1  0.87537586  0.05555347  0.30533071  1
  Li  Li12  1  0.55555398  0.87537542  0.55532983  1
  Li  Li13  1  0.12462435  0.05555444  0.80533172  1
  Li  Li14  1  0.87537499  0.94444501  0.80532892  1
  Li  Li15  1  0.37537395  0.44444515  0.30532739  1
  Br  Br16  1  0.64994370  0.94573050  0.86629943  1
  Br  Br17  1  0.44573147  0.64994509  0.11630076  1
  Br  Br18  1  0.35005682  0.94573180  0.36630195  1
  Br  Br19  1  0.35005556  0.05427018  0.86630088  1
  Br  Br20  1  0.55426887  0.35005425  0.11630181  1
  Br  Br21  1  0.05426892  0.14994303  0.11630083  1
  Br  Br22  1  0.94573166  0.85005747  0.11630005  1
  Br  Br23  1  0.55426950  0.64994398  0.61630176  1
  Br  Br24  1  0.44573096  0.35005671  0.61630084  1
  Br  Br25  1  0.85005535  0.55426927  0.36629960  1
  Br  Br26  1  0.05427014  0.85005650  0.61630080  1
  Br  Br27  1  0.14994359  0.44573142  0.36629793  1
  Br  Br28  1  0.94573043  0.14994283  0.61629947  1
  Br  Br29  1  0.85005599  0.44573085  0.86630001  1
  Br  Br30  1  0.14994487  0.55426939  0.86630015  1
  Br  Br31  1  0.64994401  0.05426858  0.36630221  1
