# generated using pymatgen
data_LiBr
_symmetry_space_group_name_H-M   'P 1'
_cell_length_a   14.88476006
_cell_length_b   14.88476881
_cell_length_c   3.98708986
_cell_angle_alpha   89.99997684
_cell_angle_beta   89.99991722
_cell_angle_gamma   90.00001228
_symmetry_Int_Tables_number   1
_chemical_formula_structural   LiBr
_chemical_formula_sum   'Li16 Br16'
_cell_volume   883.36452889
_cell_formula_units_Z   16
loop_
 _symmetry_equiv_pos_site_id
 _symmetry_equiv_pos_as_xyz
  1  'x, y, z'
loop_
 _atom_site_type_symbol
 _atom_site_label
 _atom_site_symmetry_multiplicity
 _atom_site_fract_x
 _atom_site_fract_y
 _atom_site_fract_z
 _atom_site_occupancy
  Li  Li0  1  0.91890110  0.78868965  0.90176317  1
  Li  Li1  1  0.71131053  0.41890076  0.59824146  1
  Li  Li2  1  0.91890098  0.28868912  0.34823655  1
  Li  Li3  1  0.08109900  0.21131091  0.90176285  1
  Li  Li4  1  0.28868973  0.58109879  0.59823439  1
  Li  Li5  1  0.21131018  0.41890152  0.15176593  1
  Li  Li6  1  0.78868963  0.58109876  0.15175908  1
  Li  Li7  1  0.71131022  0.91890127  0.65176560  1
  Li  Li8  1  0.28868979  0.08109899  0.65175979  1
  Li  Li9  1  0.58109895  0.71130990  0.40176189  1
  Li  Li10  1  0.78868991  0.08109859  0.09823416  1
  Li  Li11  1  0.41890126  0.28868993  0.40176154  1
  Li  Li12  1  0.21131002  0.91890133  0.09823991  1
  Li  Li13  1  0.41890126  0.78869001  0.84823839  1
  Li  Li14  1  0.58109868  0.21130994  0.84823884  1
  Li  Li15  1  0.08109880  0.71131053  0.34823670  1
  Br  Br16  1  0.17931320  0.58675102  0.10552147  1
  Br  Br17  1  0.91324911  0.67931310  0.39447731  1
  Br  Br18  1  0.17931314  0.08675125  0.14447647  1
  Br  Br19  1  0.82068708  0.41324897  0.10552379  1
  Br  Br20  1  0.08675048  0.32068719  0.39447713  1
  Br  Br21  1  0.41324900  0.67931361  0.35552352  1
  Br  Br22  1  0.58675107  0.32068648  0.35552367  1
  Br  Br23  1  0.91324969  0.17931282  0.85552231  1
  Br  Br24  1  0.08675069  0.82068703  0.85552296  1
  Br  Br25  1  0.32068667  0.91324932  0.60552388  1
  Br  Br26  1  0.58675100  0.82068632  0.89447652  1
  Br  Br27  1  0.67931339  0.08675078  0.60552170  1
  Br  Br28  1  0.41324895  0.17931344  0.89447614  1
  Br  Br29  1  0.67931309  0.58675026  0.64447603  1
  Br  Br30  1  0.32068675  0.41324936  0.64447830  1
  Br  Br31  1  0.82068666  0.91324904  0.14447856  1
