# generated using pymatgen
data_LiBr
_symmetry_space_group_name_H-M   'P 1'
_cell_length_a   7.42451924
_cell_length_b   5.71304654
_cell_length_c   4.60233986
_cell_angle_alpha   90.00003846
_cell_angle_beta   90.00000059
_cell_angle_gamma   90.00001090
_symmetry_Int_Tables_number   1
_chemical_formula_structural   LiBr
_chemical_formula_sum   'Li4 Br4'
_cell_volume   195.21571895
_cell_formula_units_Z   4
loop_
 _symmetry_equiv_pos_site_id
 _symmetry_equiv_pos_as_xyz
  1  'x, y, z'
loop_
 _atom_site_type_symbol
 _atom_site_label
 _atom_site_symmetry_multiplicity
 _atom_site_fract_x
 _atom_site_fract_y
 _atom_site_fract_z
 _atom_site_occupancy
  Li  Li0  1  0.83109623  0.74208779  0.75417905  1
  Li  Li1  1  0.16889980  0.24208791  0.74582013  1
  Li  Li2  1  0.66890368  0.25791200  0.25418854  1
  Li  Li3  1  0.33110016  0.75791133  0.24581262  1
  Br  Br4  1  0.32490673  0.24934829  0.24609549  1
  Br  Br5  1  0.67509701  0.74934848  0.25390415  1
  Br  Br6  1  0.17509343  0.75065221  0.74609464  1
  Br  Br7  1  0.82490296  0.25065199  0.75390537  1
