# generated using pymatgen
data_LiI
_symmetry_space_group_name_H-M   'P 1'
_cell_length_a   8.52059450
_cell_length_b   8.47531602
_cell_length_c   12.04430941
_cell_angle_alpha   90.00000281
_cell_angle_beta   89.99995159
_cell_angle_gamma   89.99998720
_symmetry_Int_Tables_number   1
_chemical_formula_structural   LiI
_chemical_formula_sum   'Li16 I16'
_cell_volume   869.77656499
_cell_formula_units_Z   16
loop_
 _symmetry_equiv_pos_site_id
 _symmetry_equiv_pos_as_xyz
  1  'x, y, z'
loop_
 _atom_site_type_symbol
 _atom_site_label
 _atom_site_symmetry_multiplicity
 _atom_site_fract_x
 _atom_site_fract_y
 _atom_site_fract_z
 _atom_site_occupancy
  Li  Li0  1  0.75052830  0.50052340  0.43082950  1
  Li  Li1  1  0.24947044  0.49947781  0.43083284  1
  Li  Li2  1  0.49946930  0.75052254  0.68083034  1
  Li  Li3  1  0.74946977  0.49947656  0.93083249  1
  Li  Li4  1  -0.00053196  0.75052217  0.18083012  1
  Li  Li5  1  0.00052795  0.74947719  0.68083370  1
  Li  Li6  1  0.25052939  0.50052328  0.93082964  1
  Li  Li7  1  -0.00053131  0.25052275  0.68083004  1
  Li  Li8  1  0.00052969  0.24947684  0.18083358  1
  Li  Li9  1  0.25053141  0.00052176  0.43082902  1
  Li  Li10  1  0.74947074  -0.00052282  0.43083285  1
  Li  Li11  1  0.49947172  0.25052273  0.18083050  1
  Li  Li12  1  0.50053036  0.74947622  0.18083345  1
  Li  Li13  1  0.50053279  0.24947789  0.68083307  1
  Li  Li14  1  0.75053066  0.00052162  0.93082914  1
  Li  Li15  1  0.24947190  -0.00052316  0.93083312  1
  I  I16  1  0.50027028  0.24995119  0.43151796  1
  I  I17  1  0.49972977  0.75004832  0.43151802  1
  I  I18  1  0.74972983  0.49995191  0.68151707  1
  I  I19  1  -0.00027112  0.75004834  0.93151785  1
  I  I20  1  0.24972983  0.49995128  0.18151728  1
  I  I21  1  0.75027022  0.00004909  0.68151752  1
  I  I22  1  0.00027055  0.24995176  0.93151803  1
  I  I23  1  0.24972847  -0.00004843  0.68151814  1
  I  I24  1  0.75027041  0.50004890  0.18151826  1
  I  I25  1  0.00027061  0.74995211  0.43151845  1
  I  I26  1  -0.00027154  0.25004892  0.43151768  1
  I  I27  1  0.74972970  -0.00004844  0.18151794  1
  I  I28  1  0.25027098  0.00004852  0.18151729  1
  I  I29  1  0.25027016  0.50004915  0.68151796  1
  I  I30  1  0.50027113  0.74995203  0.93151805  1
  I  I31  1  0.49972956  0.25004858  0.93151837  1
