# generated using pymatgen
data_LiBr
_symmetry_space_group_name_H-M   'P 1'
_cell_length_a   11.35918658
_cell_length_b   11.35918715
_cell_length_c   8.00810558
_cell_angle_alpha   90.00550403
_cell_angle_beta   89.99446505
_cell_angle_gamma   120.00521236
_symmetry_Int_Tables_number   1
_chemical_formula_structural   LiBr
_chemical_formula_sum   'Li18 Br18'
_cell_volume   894.81260702
_cell_formula_units_Z   18
loop_
 _symmetry_equiv_pos_site_id
 _symmetry_equiv_pos_as_xyz
  1  'x, y, z'
loop_
 _atom_site_type_symbol
 _atom_site_label
 _atom_site_symmetry_multiplicity
 _atom_site_fract_x
 _atom_site_fract_y
 _atom_site_fract_z
 _atom_site_occupancy
  Li  Li0  1  0.59492367  0.79822337  0.79900410  1
  Li  Li1  1  0.59493652  0.79671020  0.29899528  1
  Li  Li2  1  0.53510946  0.07174074  -0.03432774  1
  Li  Li3  1  0.53661745  0.46489591  -0.03432823  1
  Li  Li4  1  0.86843741  0.13004819  0.13233850  1
  Li  Li5  1  0.20176788  0.79671416  0.79900524  1
  Li  Li6  1  0.53662551  0.07173094  0.46566505  1
  Li  Li7  1  0.53510464  0.46338310  0.46567248  1
  Li  Li8  1  0.20328909  0.40506219  0.79899768  1
  Li  Li9  1  0.20328340  0.79822958  0.29900629  1
  Li  Li10  1  0.92826238  0.46489266  0.46566937  1
  Li  Li11  1  0.92826927  0.46337524  -0.03433781  1
  Li  Li12  1  0.86995662  0.73839623  0.13232746  1
  Li  Li13  1  0.86995113  0.13156269  0.63233684  1
  Li  Li14  1  0.20177537  0.40507200  0.29900644  1
  Li  Li15  1  0.86844218  0.73840675  0.63233829  1
  Li  Li16  1  0.26159576  0.13155728  0.13233916  1
  Li  Li17  1  0.26160544  0.13004227  0.63232988  1
  Br  Br18  1  0.75876368  0.87865896  0.05750900  1
  Br  Br19  1  0.75875502  0.88009767  0.55751330  1
  Br  Br20  1  0.45467464  0.90790334  0.22417888  1
  Br  Br21  1  0.45323232  0.54531520  0.22421727  1
  Br  Br22  1  0.78801927  0.21343599  0.39088209  1
  Br  Br23  1  0.12135158  0.88010165  0.05754993  1
  Br  Br24  1  0.45323409  0.90790921  0.72418089  1
  Br  Br25  1  0.45468338  0.54676713  0.72421704  1
  Br  Br26  1  0.11990299  0.24124217  0.05751396  1
  Br  Br27  1  0.11989849  0.87865000  0.55755010  1
  Br  Br28  1  0.09209685  0.54532417  0.72417595  1
  Br  Br29  1  0.09209161  0.54676396  0.22417773  1
  Br  Br30  1  0.78657048  0.57457775  0.39084475  1
  Br  Br31  1  0.78656610  0.21198109  0.89088287  1
  Br  Br32  1  0.12134135  0.24123466  0.55751067  1
  Br  Br33  1  0.78800647  0.57456793  0.89084126  1
  Br  Br34  1  0.42543332  0.21199362  0.39084455  1
  Br  Br35  1  0.42542515  0.21343198  0.89084690  1
