# generated using pymatgen
data_KI
_symmetry_space_group_name_H-M   'P 1'
_cell_length_a   9.79346103
_cell_length_b   4.53997620
_cell_length_c   8.43066581
_cell_angle_alpha   89.99409299
_cell_angle_beta   89.99897335
_cell_angle_gamma   89.99886543
_symmetry_Int_Tables_number   1
_chemical_formula_structural   KI
_chemical_formula_sum   'K4 I4'
_cell_volume   374.84493493
_cell_formula_units_Z   4
loop_
 _symmetry_equiv_pos_site_id
 _symmetry_equiv_pos_as_xyz
  1  'x, y, z'
loop_
 _atom_site_type_symbol
 _atom_site_label
 _atom_site_symmetry_multiplicity
 _atom_site_fract_x
 _atom_site_fract_y
 _atom_site_fract_z
 _atom_site_occupancy
  K  K0  1  0.12695036  0.50151950  0.12715321  1
  K  K1  1  0.62694178  0.49848955  0.12714942  1
  K  K2  1  0.87305358  0.49847432  0.62715213  1
  K  K3  1  0.37305085  0.50150815  0.62715186  1
  I  I4  1  0.12357224  0.00295449  0.46209630  1
  I  I5  1  0.62357324  -0.00294053  0.46209201  1
  I  I6  1  0.87642527  -0.00294842  0.96209090  1
  I  I7  1  0.37643269  0.00294294  0.96209876  1
