# generated using pymatgen
data_LiBr
_symmetry_space_group_name_H-M   'P 1'
_cell_length_a   6.67179262
_cell_length_b   3.87106672
_cell_length_c   6.45393245
_cell_angle_alpha   90.00104157
_cell_angle_beta   89.99993244
_cell_angle_gamma   90.00025536
_symmetry_Int_Tables_number   1
_chemical_formula_structural   LiBr
_chemical_formula_sum   'Li4 Br4'
_cell_volume   166.68541893
_cell_formula_units_Z   4
loop_
 _symmetry_equiv_pos_site_id
 _symmetry_equiv_pos_as_xyz
  1  'x, y, z'
loop_
 _atom_site_type_symbol
 _atom_site_label
 _atom_site_symmetry_multiplicity
 _atom_site_fract_x
 _atom_site_fract_y
 _atom_site_fract_z
 _atom_site_occupancy
  Li  Li0  1  0.49831012  0.00082315  0.62493679  1
  Li  Li1  1  -0.00168884  0.49917785  0.62493744  1
  Li  Li2  1  0.50168900  -0.00082291  0.12494104  1
  Li  Li3  1  0.00168976  0.50082204  0.12494120  1
  Br  Br4  1  0.66695221  0.50024067  0.87456666  1
  Br  Br5  1  0.16695286  -0.00024062  0.87456762  1
  Br  Br6  1  0.33304839  0.49975916  0.37456633  1
  Br  Br7  1  0.83304651  0.00024067  0.37456745  1
