# generated using pymatgen
data_LiBr
_symmetry_space_group_name_H-M   'P 1'
_cell_length_a   13.07421795
_cell_length_b   13.07421973
_cell_length_c   5.03114937
_cell_angle_alpha   90.00061020
_cell_angle_beta   90.00011386
_cell_angle_gamma   89.99998662
_symmetry_Int_Tables_number   1
_chemical_formula_structural   LiBr
_chemical_formula_sum   'Li16 Br16'
_cell_volume   860.00051515
_cell_formula_units_Z   16
loop_
 _symmetry_equiv_pos_site_id
 _symmetry_equiv_pos_as_xyz
  1  'x, y, z'
loop_
 _atom_site_type_symbol
 _atom_site_label
 _atom_site_symmetry_multiplicity
 _atom_site_fract_x
 _atom_site_fract_y
 _atom_site_fract_z
 _atom_site_occupancy
  Li  Li0  1  0.92521265  0.40646164  -0.00089936  1
  Li  Li1  1  0.09353929  0.42521401  0.50089623  1
  Li  Li2  1  0.92521279  0.90645928  0.25089243  1
  Li  Li3  1  0.07478707  0.59354055  -0.00089276  1
  Li  Li4  1  0.90646019  0.57478862  0.50089519  1
  Li  Li5  1  0.59354016  0.42521125  0.24910520  1
  Li  Li6  1  0.40646048  0.57478602  0.24910446  1
  Li  Li7  1  0.09354003  0.92521154  0.74910507  1
  Li  Li8  1  0.90646019  0.07478612  0.74910423  1
  Li  Li9  1  0.57478720  0.09354100  0.49910730  1
  Li  Li10  1  0.40646001  0.07478838  0.00089494  1
  Li  Li11  1  0.42521312  0.90646137  0.49910130  1
  Li  Li12  1  0.59353973  0.92521417  0.00089582  1
  Li  Li13  1  0.42521276  0.40645904  0.75089234  1
  Li  Li14  1  0.57478725  0.59353853  0.75089869  1
  Li  Li15  1  0.07478699  0.09353885  0.25089880  1
  Br  Br16  1  0.12290009  0.40240399  0.00095664  1
  Br  Br17  1  0.09759678  0.62290115  0.49904482  1
  Br  Br18  1  0.12290047  0.90240233  0.24904052  1
  Br  Br19  1  0.87709961  0.59759792  0.00095990  1
  Br  Br20  1  0.90240278  0.37710090  0.49903813  1
  Br  Br21  1  0.59759684  0.62289913  0.25096242  1
  Br  Br22  1  0.40240339  0.37709846  0.25095464  1
  Br  Br23  1  0.09759653  0.12289945  0.75096217  1
  Br  Br24  1  0.90240334  0.87709861  0.75095481  1
  Br  Br25  1  0.37709964  0.09759765  0.50095957  1
  Br  Br26  1  0.40240362  0.87710072  -0.00096234  1
  Br  Br27  1  0.62290043  0.90240469  0.50095669  1
  Br  Br28  1  0.59759656  0.12290150  -0.00095461  1
  Br  Br29  1  0.62290050  0.40240204  0.74904051  1
  Br  Br30  1  0.37709986  0.59759548  0.74904288  1
  Br  Br31  1  0.87709964  0.09759561  0.24904338  1
