# generated using pymatgen
data_KI
_symmetry_space_group_name_H-M   'P 1'
_cell_length_a   8.62790682
_cell_length_b   4.97149098
_cell_length_c   8.68609364
_cell_angle_alpha   90.00128099
_cell_angle_beta   90.00107791
_cell_angle_gamma   90.00238658
_symmetry_Int_Tables_number   1
_chemical_formula_structural   KI
_chemical_formula_sum   'K4 I4'
_cell_volume   372.57748677
_cell_formula_units_Z   4
loop_
 _symmetry_equiv_pos_site_id
 _symmetry_equiv_pos_as_xyz
  1  'x, y, z'
loop_
 _atom_site_type_symbol
 _atom_site_label
 _atom_site_symmetry_multiplicity
 _atom_site_fract_x
 _atom_site_fract_y
 _atom_site_fract_z
 _atom_site_occupancy
  K  K0  1  0.74985315  0.24435662  0.69917693  1
  K  K1  1  0.24985481  0.75564442  0.69917752  1
  K  K2  1  0.25014624  0.75564454  0.19917587  1
  K  K3  1  0.75014877  0.24435666  0.19917434  1
  I  I4  1  0.91663291  0.74477211  0.94831378  1
  I  I5  1  0.41663032  0.25522501  0.94831419  1
  I  I6  1  0.08336872  0.25522694  0.44831319  1
  I  I7  1  0.58336508  0.74477370  0.44831411  1
