# generated using pymatgen
data_NaBr
_symmetry_space_group_name_H-M   'P 1'
_cell_length_a   8.88168840
_cell_length_b   4.98586743
_cell_length_c   5.99558535
_cell_angle_alpha   89.99993769
_cell_angle_beta   89.99981890
_cell_angle_gamma   90.00003908
_symmetry_Int_Tables_number   1
_chemical_formula_structural   NaBr
_chemical_formula_sum   'Na4 Br4'
_cell_volume   265.50203190
_cell_formula_units_Z   4
loop_
 _symmetry_equiv_pos_site_id
 _symmetry_equiv_pos_as_xyz
  1  'x, y, z'
loop_
 _atom_site_type_symbol
 _atom_site_label
 _atom_site_symmetry_multiplicity
 _atom_site_fract_x
 _atom_site_fract_y
 _atom_site_fract_z
 _atom_site_occupancy
  Na  Na0  1  0.16544447  -0.02183935  0.00231634  1
  Na  Na1  1  0.66547913  0.52185236  0.00232569  1
  Na  Na2  1  0.83455963  0.02184117  0.50229015  1
  Na  Na3  1  0.33451912  0.47814304  0.50232990  1
  Br  Br4  1  0.66335180  0.52197881  0.50297437  1
  Br  Br5  1  0.16334192  -0.02195442  0.50296474  1
  Br  Br6  1  0.33664181  0.47802383  0.00297930  1
  Br  Br7  1  0.83666211  0.02195457  0.00295039  1
