# generated using pymatgen
data_KI
_symmetry_space_group_name_H-M   'P 1'
_cell_length_a   4.66435041
_cell_length_b   14.12458069
_cell_length_c   5.43059917
_cell_angle_alpha   89.99996965
_cell_angle_beta   89.99506572
_cell_angle_gamma   90.00012602
_symmetry_Int_Tables_number   1
_chemical_formula_structural   KI
_chemical_formula_sum   'K4 I4'
_cell_volume   357.77869945
_cell_formula_units_Z   4
loop_
 _symmetry_equiv_pos_site_id
 _symmetry_equiv_pos_as_xyz
  1  'x, y, z'
loop_
 _atom_site_type_symbol
 _atom_site_label
 _atom_site_symmetry_multiplicity
 _atom_site_fract_x
 _atom_site_fract_y
 _atom_site_fract_z
 _atom_site_occupancy
  K  K0  1  0.24899416  0.37533180  0.22275669  1
  K  K1  1  0.74899447  0.87533180  0.22275666  1
  K  K2  1  0.24899406  0.62466821  0.72275697  1
  K  K3  1  0.74899383  0.12466820  0.72275688  1
  I  I4  1  0.74931030  0.37681603  0.72213294  1
  I  I5  1  0.24931063  0.87681604  0.72213291  1
  I  I6  1  0.74931008  0.62318396  0.22213290  1
  I  I7  1  0.24930982  0.12318396  0.22213281  1
