# generated using pymatgen
data_LiBr
_symmetry_space_group_name_H-M   'P 1'
_cell_length_a   7.20820216
_cell_length_b   4.35183840
_cell_length_c   6.84568075
_cell_angle_alpha   90.00021263
_cell_angle_beta   90.00255432
_cell_angle_gamma   90.00069169
_symmetry_Int_Tables_number   1
_chemical_formula_structural   LiBr
_chemical_formula_sum   'Li4 Br4'
_cell_volume   214.74168682
_cell_formula_units_Z   4
loop_
 _symmetry_equiv_pos_site_id
 _symmetry_equiv_pos_as_xyz
  1  'x, y, z'
loop_
 _atom_site_type_symbol
 _atom_site_label
 _atom_site_symmetry_multiplicity
 _atom_site_fract_x
 _atom_site_fract_y
 _atom_site_fract_z
 _atom_site_occupancy
  Li  Li0  1  0.40144238  0.00226690  0.40325056  1
  Li  Li1  1  0.59855778  0.50226696  0.09674960  1
  Li  Li2  1  0.09856443  -0.00227123  0.90323603  1
  Li  Li3  1  -0.09856408  0.49773025  0.59676291  1
  Br  Br4  1  0.42768574  0.00192677  0.02577902  1
  Br  Br5  1  0.57231340  0.50192668  0.47422277  1
  Br  Br6  1  0.07233350  -0.00192445  0.52579955  1
  Br  Br7  1  0.92766685  0.49807812  0.97419956  1
