# generated using pymatgen
data_LiI
_symmetry_space_group_name_H-M   'P 1'
_cell_length_a   12.38482397
_cell_length_b   12.38483459
_cell_length_c   8.76782174
_cell_angle_alpha   89.94845862
_cell_angle_beta   90.05139523
_cell_angle_gamma   119.91784640
_symmetry_Int_Tables_number   1
_chemical_formula_structural   LiI
_chemical_formula_sum   'Li18 I18'
_cell_volume   1165.63099464
_cell_formula_units_Z   18
loop_
 _symmetry_equiv_pos_site_id
 _symmetry_equiv_pos_as_xyz
  1  'x, y, z'
loop_
 _atom_site_type_symbol
 _atom_site_label
 _atom_site_symmetry_multiplicity
 _atom_site_fract_x
 _atom_site_fract_y
 _atom_site_fract_z
 _atom_site_occupancy
  Li  Li0  1  0.80140842  0.59805198  0.74666771  1
  Li  Li1  1  0.80137760  0.20338258  0.24780428  1
  Li  Li2  1  0.73535169  0.86533051  0.91303467  1
  Li  Li3  1  0.12939595  0.26429474  0.91274621  1
  Li  Li4  1  0.06900770  0.53720945  0.07945597  1
  Li  Li5  1  0.40240347  0.20394375  0.74619502  1
  Li  Li6  1  0.12985398  0.86533734  0.41421504  1
  Li  Li7  1  0.73570138  0.87060114  0.41273607  1
  Li  Li8  1  0.79661785  0.19862332  0.74780727  1
  Li  Li9  1  0.79606310  0.59760167  0.24620214  1
  Li  Li10  1  0.13466700  0.26463994  0.41304369  1
  Li  Li11  1  0.13465853  0.87014612  0.91421347  1
  Li  Li12  1  0.46334920  0.53204531  0.08079577  1
  Li  Li13  1  0.46278990  -0.06900500  0.57944585  1
  Li  Li14  1  0.40194962  0.19859550  0.24665311  1
  Li  Li15  1  0.06865905  0.53205252  0.57979210  1
  Li  Li16  1  0.46794654  -0.06865575  0.07978181  1
  Li  Li17  1  0.46795311  0.53664932  0.58079531  1
  I  I18  1  0.57242878  0.78417124  0.15497775  1
  I  I19  1  0.57258994  0.78823282  0.65453293  1
  I  I20  1  0.54908063  0.09415723  0.32178604  1
  I  I21  1  0.54502460  0.45076020  0.32321451  1
  I  I22  1  -0.11744176  0.12154221  0.49011182  1
  I  I23  1  0.21592264  0.78834190  0.15659783  1
  I  I24  1  0.54512807  0.09397270  0.82126081  1
  I  I25  1  0.54923997  0.45497656  0.82321514  1
  I  I26  1  0.21176879  0.42740535  0.15454502  1
  I  I27  1  0.21165815  0.78407486  0.65659709  1
  I  I28  1  0.90584671  0.45092668  0.82180175  1
  I  I29  1  0.90602989  0.45487632  0.32127389  1
  I  I30  1  0.87837599  0.76067206  0.48809429  1
  I  I31  1  0.87845731  0.11744092  -0.00988461  1
  I  I32  1  0.21582515  0.42756381  0.65498188  1
  I  I33  1  -0.11751508  0.76090938  -0.01144704  1
  I  I34  1  0.23909514  0.11751173  0.48854450  1
  I  I35  1  0.23933100  0.12161957  -0.01191142  1
