# generated using pymatgen
data_LiI
_symmetry_space_group_name_H-M   'P 1'
_cell_length_a   12.58768501
_cell_length_b   12.58769324
_cell_length_c   8.66717237
_cell_angle_alpha   89.99939169
_cell_angle_beta   90.00055217
_cell_angle_gamma   119.99957287
_symmetry_Int_Tables_number   1
_chemical_formula_structural   LiI
_chemical_formula_sum   'Li18 I18'
_cell_volume   1189.32884436
_cell_formula_units_Z   18
loop_
 _symmetry_equiv_pos_site_id
 _symmetry_equiv_pos_as_xyz
  1  'x, y, z'
loop_
 _atom_site_type_symbol
 _atom_site_label
 _atom_site_symmetry_multiplicity
 _atom_site_fract_x
 _atom_site_fract_y
 _atom_site_fract_z
 _atom_site_occupancy
  Li  Li0  1  0.26291069  0.12967791  0.40647833  1
  Li  Li1  1  0.26290628  0.13323088  0.90647861  1
  Li  Li2  1  0.20368326  0.40376365  0.57314764  1
  Li  Li3  1  0.20007737  0.79631460  0.57314702  1
  Li  Li4  1  0.53697729  0.46657328  0.73981950  1
  Li  Li5  1  0.87031686  0.13323657  0.40648143  1
  Li  Li6  1  0.20007930  0.40377290  0.07314810  1
  Li  Li7  1  0.20368546  0.79992239  0.07314712  1
  Li  Li8  1  0.86677035  0.73709356  0.40647919  1
  Li  Li9  1  0.86676404  0.12968244  0.90648110  1
  Li  Li10  1  0.59623665  0.79631664  0.07314798  1
  Li  Li11  1  0.59622804  0.79992083  0.57314893  1
  Li  Li12  1  0.53343105  0.07041680  0.73981676  1
  Li  Li13  1  0.53342679  0.46302219  0.23981997  1
  Li  Li14  1  0.87032349  0.73708952  0.90647756  1
  Li  Li15  1  0.53698028  0.07041288  0.23981455  1
  Li  Li16  1  0.92958741  0.46302001  0.73981294  1
  Li  Li17  1  0.92958202  0.46656927  0.23981536  1
  I  I18  1  0.45415728  0.54858867  0.49975603  1
  I  I19  1  0.45415982  0.90556237  -0.00025943  1
  I  I20  1  0.78475418  0.21252610  0.66641351  1
  I  I21  1  0.42777711  0.21524477  0.66640011  1
  I  I22  1  0.11807598  0.23889785  0.83307311  1
  I  I23  1  0.45140983  0.90556480  0.49974036  1
  I  I24  1  0.42777858  0.21252742  0.16639770  1
  I  I25  1  0.78475463  0.57222324  0.16639964  1
  I  I26  1  0.09443719  0.54584048  0.49973927  1
  I  I27  1  0.09443436  0.54859008  -0.00026022  1
  I  I28  1  0.78747350  0.21524573  0.16641243  1
  I  I29  1  0.78747230  0.57222107  0.66639669  1
  I  I30  1  0.76110436  0.87917528  0.83307049  1
  I  I31  1  0.76110199  0.88192409  0.33307385  1
  I  I32  1  0.45141149  0.54584263  -0.00024395  1
  I  I33  1  0.11807891  0.87917228  0.33308082  1
  I  I34  1  0.12082805  0.88192103  0.83308114  1
  I  I35  1  0.12082380  0.23889580  0.33306991  1
