# generated using pymatgen
data_LiBr
_symmetry_space_group_name_H-M   'P 1'
_cell_length_a   7.83554646
_cell_length_b   7.83551465
_cell_length_c   10.79665397
_cell_angle_alpha   90.02591246
_cell_angle_beta   90.04756906
_cell_angle_gamma   90.00253685
_symmetry_Int_Tables_number   1
_chemical_formula_structural   LiBr
_chemical_formula_sum   'Li16 Br16'
_cell_volume   662.86609365
_cell_formula_units_Z   16
loop_
 _symmetry_equiv_pos_site_id
 _symmetry_equiv_pos_as_xyz
  1  'x, y, z'
loop_
 _atom_site_type_symbol
 _atom_site_label
 _atom_site_symmetry_multiplicity
 _atom_site_fract_x
 _atom_site_fract_y
 _atom_site_fract_z
 _atom_site_occupancy
  Li  Li0  1  0.75042923  0.49931026  0.80891294  1
  Li  Li1  1  -0.00069066  0.75042720  0.05890895  1
  Li  Li2  1  0.24957422  0.49928999  0.30892437  1
  Li  Li3  1  0.24957392  0.50069694  0.80890408  1
  Li  Li4  1  0.00069830  0.24957840  0.05892821  1
  Li  Li5  1  0.50069354  0.25042727  0.05892122  1
  Li  Li6  1  0.49929798  0.74956680  0.05892096  1
  Li  Li7  1  0.00069664  0.75042206  0.55893656  1
  Li  Li8  1  -0.00070257  0.24957614  0.55891225  1
  Li  Li9  1  0.74957644  0.00070090  0.30893555  1
  Li  Li10  1  0.50069864  0.74957925  0.55891005  1
  Li  Li11  1  0.25042993  -0.00069376  0.30891893  1
  Li  Li12  1  0.49931102  0.25042817  0.55891679  1
  Li  Li13  1  0.74957632  -0.00069534  0.80891392  1
  Li  Li14  1  0.25041693  0.00068695  0.80890920  1
  Li  Li15  1  0.75041478  0.50069363  0.30892091  1
  Br  Br16  1  0.74982960  0.00072226  0.05907080  1
  Br  Br17  1  0.50069492  0.74982546  0.30906186  1
  Br  Br18  1  0.25015111  0.00070254  0.55907687  1
  Br  Br19  1  0.25016417  -0.00069091  0.05904872  1
  Br  Br20  1  0.49930871  0.25017468  0.30907118  1
  Br  Br21  1  -0.00070686  0.24981256  0.30905102  1
  Br  Br22  1  0.00071684  0.75017325  0.30908471  1
  Br  Br23  1  0.49929136  0.74984532  0.80907939  1
  Br  Br24  1  0.50068574  0.25013843  0.80906499  1
  Br  Br25  1  0.75016168  0.49930684  0.55908195  1
  Br  Br26  1  -0.00068939  0.75015108  0.80906098  1
  Br  Br27  1  0.24983786  0.50070904  0.55908000  1
  Br  Br28  1  0.00071644  0.24985002  0.80908168  1
  Br  Br29  1  0.75017606  0.50069554  0.05905229  1
  Br  Br30  1  0.24982253  0.49929820  0.05907227  1
  Br  Br31  1  0.74984458  -0.00070919  0.55907137  1
