# generated using pymatgen
data_LiI
_symmetry_space_group_name_H-M   'P 1'
_cell_length_a   12.50275892
_cell_length_b   12.50241241
_cell_length_c   11.38495050
_cell_angle_alpha   90.00263006
_cell_angle_beta   90.00021565
_cell_angle_gamma   120.00094484
_symmetry_Int_Tables_number   1
_chemical_formula_structural   LiI
_chemical_formula_sum   'Li18 I18'
_cell_volume   1541.19404022
_cell_formula_units_Z   18
loop_
 _symmetry_equiv_pos_site_id
 _symmetry_equiv_pos_as_xyz
  1  'x, y, z'
loop_
 _atom_site_type_symbol
 _atom_site_label
 _atom_site_symmetry_multiplicity
 _atom_site_fract_x
 _atom_site_fract_y
 _atom_site_fract_z
 _atom_site_occupancy
  Li  Li0  1  0.10478536  0.64133129  0.57071606  1
  Li  Li1  1  0.13005795  0.43819405  0.76246663  1
  Li  Li2  1  0.89521446  0.35866841  0.42928371  1
  Li  Li3  1  0.53657396  0.89523312  0.57070877  1
  Li  Li4  1  0.30814745  0.86993772  0.76247239  1
  Li  Li5  1  0.64134483  0.53656225  0.42929960  1
  Li  Li6  1  0.02543089  0.79682989  0.90420748  1
  Li  Li7  1  0.35865600  0.46343841  0.57069930  1
  Li  Li8  1  0.46342551  0.10476653  0.42929125  1
  Li  Li9  1  0.97456859  0.20316962  0.09579493  1
  Li  Li10  1  0.69185218  0.13006222  0.23752640  1
  Li  Li11  1  0.20318651  0.22861948  0.90422062  1
  Li  Li12  1  0.79681526  0.77138139  0.09578194  1
  Li  Li13  1  0.86994111  0.56180531  0.23753275  1
  Li  Li14  1  0.77140194  0.97456520  0.90422527  1
  Li  Li15  1  0.22859884  0.02543446  0.09577206  1
  Li  Li16  1  0.56179765  0.69187169  0.76245626  1
  Li  Li17  1  0.43820303  0.30812948  0.23754546  1
  I  I18  1  0.46324572  0.10401038  0.18457861  1
  I  I19  1  0.02603160  0.79667370  0.14884250  1
  I  I20  1  0.53675429  0.89599047  0.81542110  1
  I  I21  1  0.64076895  0.53672653  0.18458499  1
  I  I22  1  0.77061967  0.97395251  0.14885531  1
  I  I23  1  0.10402674  0.64076166  0.81542929  1
  I  I24  1  0.56266187  0.69263059  0.51788919  1
  I  I25  1  0.89597270  0.35923836  0.18456991  1
  I  I26  1  0.35923022  0.46327425  0.81541463  1
  I  I27  1  0.43733904  0.30737008  0.48211187  1
  I  I28  1  0.22937908  0.02604689  0.85114377  1
  I  I29  1  0.30738337  0.87002363  0.51790625  1
  I  I30  1  0.69261602  0.12997575  0.48209297  1
  I  I31  1  0.97396980  0.20332637  0.85115844  1
  I  I32  1  0.12995148  0.43732154  0.51789792  1
  I  I33  1  0.87004810  0.56267805  0.48210117  1
  I  I34  1  0.20334519  0.22939025  0.14884793  1
  I  I35  1  0.79665462  0.77060847  0.85115328  1
