# generated using pymatgen
data_LiI
_symmetry_space_group_name_H-M   'P 1'
_cell_length_a   4.27095045
_cell_length_b   4.27088350
_cell_length_c   11.89505480
_cell_angle_alpha   90.00006419
_cell_angle_beta   89.99999862
_cell_angle_gamma   90.00673687
_symmetry_Int_Tables_number   1
_chemical_formula_structural   LiI
_chemical_formula_sum   'Li4 I4'
_cell_volume   216.97450270
_cell_formula_units_Z   4
loop_
 _symmetry_equiv_pos_site_id
 _symmetry_equiv_pos_as_xyz
  1  'x, y, z'
loop_
 _atom_site_type_symbol
 _atom_site_label
 _atom_site_symmetry_multiplicity
 _atom_site_fract_x
 _atom_site_fract_y
 _atom_site_fract_z
 _atom_site_occupancy
  Li  Li0  1  0.49965179  0.00026456  0.53644472  1
  Li  Li1  1  0.00027087  0.50035725  0.78644483  1
  Li  Li2  1  0.50035103  -0.00026406  0.03644480  1
  Li  Li3  1  -0.00027259  0.49964194  0.28644456  1
  I  I4  1  -0.00042426  0.49948781  0.03622978  1
  I  I5  1  0.49947984  0.00041607  0.28623017  1
  I  I6  1  0.00042356  0.50051272  0.53622979  1
  I  I7  1  0.50051978  -0.00041629  0.78623010  1
