# generated using pymatgen
data_KI
_symmetry_space_group_name_H-M   'P 1'
_cell_length_a   4.92271963
_cell_length_b   8.84646147
_cell_length_c   4.97388971
_cell_angle_alpha   89.99998177
_cell_angle_beta   120.08812720
_cell_angle_gamma   90.00000955
_symmetry_Int_Tables_number   1
_chemical_formula_structural   KI
_chemical_formula_sum   'K2 I2'
_cell_volume   187.41965067
_cell_formula_units_Z   2
loop_
 _symmetry_equiv_pos_site_id
 _symmetry_equiv_pos_as_xyz
  1  'x, y, z'
loop_
 _atom_site_type_symbol
 _atom_site_label
 _atom_site_symmetry_multiplicity
 _atom_site_fract_x
 _atom_site_fract_y
 _atom_site_fract_z
 _atom_site_occupancy
  K  K0  1  0.83056598  0.44763989  0.16316649  1
  K  K1  1  0.16943978  -0.05236133  0.83682973  1
  I  I2  1  0.50108445  0.69719110  0.49943519  1
  I  I3  1  0.49890980  0.19719076  0.50056859  1
