# generated using pymatgen
data_LiI
_symmetry_space_group_name_H-M   'P 1'
_cell_length_a   6.84783337
_cell_length_b   4.69961142
_cell_length_c   9.39849657
_cell_angle_alpha   60.65363248
_cell_angle_beta   90.01884235
_cell_angle_gamma   89.99822135
_symmetry_Int_Tables_number   1
_chemical_formula_structural   LiI
_chemical_formula_sum   'Li4 I4'
_cell_volume   263.64956237
_cell_formula_units_Z   4
loop_
 _symmetry_equiv_pos_site_id
 _symmetry_equiv_pos_as_xyz
  1  'x, y, z'
loop_
 _atom_site_type_symbol
 _atom_site_label
 _atom_site_symmetry_multiplicity
 _atom_site_fract_x
 _atom_site_fract_y
 _atom_site_fract_z
 _atom_site_occupancy
  Li  Li0  1  0.66624606  0.92336734  0.32343674  1
  Li  Li1  1  0.16574316  0.57204140  0.17665891  1
  Li  Li2  1  0.33380839  0.57674738  0.67659964  1
  Li  Li3  1  0.83402158  -0.07198132  0.82320163  1
  I  I4  1  0.74115393  0.58798441  0.66042799  1
  I  I5  1  0.24116168  0.91589123  0.83961243  1
  I  I6  1  0.75901447  0.58411511  0.16039454  1
  I  I7  1  0.25885072  -0.08816557  0.33966812  1
