# generated using pymatgen
data_LiBr
_symmetry_space_group_name_H-M   'P 1'
_cell_length_a   11.54276400
_cell_length_b   11.54277853
_cell_length_c   7.89621813
_cell_angle_alpha   89.99601682
_cell_angle_beta   90.00403733
_cell_angle_gamma   119.99992251
_symmetry_Int_Tables_number   1
_chemical_formula_structural   LiBr
_chemical_formula_sum   'Li18 Br18'
_cell_volume   911.10889370
_cell_formula_units_Z   18
loop_
 _symmetry_equiv_pos_site_id
 _symmetry_equiv_pos_as_xyz
  1  'x, y, z'
loop_
 _atom_site_type_symbol
 _atom_site_label
 _atom_site_symmetry_multiplicity
 _atom_site_fract_x
 _atom_site_fract_y
 _atom_site_fract_z
 _atom_site_occupancy
  Li  Li0  1  0.46326600  0.53639044  0.41136525  1
  Li  Li1  1  0.46325649  0.92685252  0.91137907  1
  Li  Li2  1  0.79689911  0.20339563  0.57741902  1
  Li  Li3  1  0.40649736  0.20311568  0.57744402  1
  Li  Li4  1  0.13017040  0.26027904  0.74554317  1
  Li  Li5  1  0.46360116  0.92686931  0.41139574  1
  Li  Li6  1  0.40650840  0.20339068  0.07742800  1
  Li  Li7  1  0.79688620  0.59350097  0.07744452  1
  Li  Li8  1  0.07315113  0.53674384  0.41138253  1
  Li  Li9  1  0.07313143  0.53640181  0.91139479  1
  Li  Li10  1  0.79660272  0.20310103  0.07741900  1
  Li  Li11  1  0.79660770  0.59349043  0.57742735  1
  Li  Li12  1  0.73973924  0.86990432  0.74553642  1
  Li  Li13  1  0.73972169  0.86983173  0.24554330  1
  Li  Li14  1  0.46360775  0.53673501  0.91136725  1
  Li  Li15  1  0.13017723  0.86990083  0.24554857  1
  Li  Li16  1  0.13009519  0.86982030  0.74554749  1
  Li  Li17  1  0.13009599  0.26025947  0.24553289  1
  Br  Br18  1  0.57399309  0.78690707  0.48509138  1
  Br  Br19  1  0.57400110  0.78709282  -0.01492323  1
  Br  Br20  1  0.54638470  0.09277061  0.65116074  1
  Br  Br21  1  0.54637256  0.45361666  0.65113022  1
  Br  Br22  1  0.87958832  0.12045091  0.81767093  1
  Br  Br23  1  0.21309600  0.78709260  0.48509659  1
  Br  Br24  1  0.54636852  0.09275005  0.15115122  1
  Br  Br25  1  0.54638333  0.45362519  0.15112974  1
  Br  Br26  1  0.21290777  0.42599850  0.48507572  1
  Br  Br27  1  0.21290746  0.78690507  -0.01490427  1
  Br  Br28  1  0.90723084  0.45361492  0.15116183  1
  Br  Br29  1  0.90725022  0.45363206  0.65115098  1
  Br  Br30  1  -0.12045929  0.75912314  0.81768214  1
  Br  Br31  1  -0.12045072  0.12041285  0.31766936  1
  Br  Br32  1  0.21309411  0.42600898  -0.01490967  1
  Br  Br33  1  0.87958038  0.75913951  0.31768997  1
  Br  Br34  1  0.24086080  0.12041851  0.81768957  1
  Br  Br35  1  0.24087561  0.12045750  0.31767997  1
