# generated using pymatgen
data_LiBr
_symmetry_space_group_name_H-M   'P 1'
_cell_length_a   11.55209203
_cell_length_b   11.55205906
_cell_length_c   7.87159691
_cell_angle_alpha   90.00049433
_cell_angle_beta   90.00090305
_cell_angle_gamma   120.00292328
_symmetry_Int_Tables_number   1
_chemical_formula_structural   LiBr
_chemical_formula_sum   'Li18 Br18'
_cell_volume   909.70529983
_cell_formula_units_Z   18
loop_
 _symmetry_equiv_pos_site_id
 _symmetry_equiv_pos_as_xyz
  1  'x, y, z'
loop_
 _atom_site_type_symbol
 _atom_site_label
 _atom_site_symmetry_multiplicity
 _atom_site_fract_x
 _atom_site_fract_y
 _atom_site_fract_z
 _atom_site_occupancy
  Li  Li0  1  0.07418086  0.53642757  0.00874838  1
  Li  Li1  1  0.07415285  0.53774216  0.50889285  1
  Li  Li2  1  0.79603312  0.59228097  0.17451936  1
  Li  Li3  1  0.79632352  0.20400926  0.17462907  1
  Li  Li4  1  0.12956048  0.87046771  0.34108702  1
  Li  Li5  1  0.46351722  0.53769027  0.00882558  1
  Li  Li6  1  0.79628373  0.59234479  0.67460759  1
  Li  Li7  1  0.79598750  0.20366918  0.67462427  1
  Li  Li8  1  0.46225919  0.92584555  0.00887896  1
  Li  Li9  1  0.46229289  0.53647473  0.50885346  1
  Li  Li10  1  0.40770689  0.20395401  0.67452190  1
  Li  Li11  1  0.40765598  0.20372281  0.17462375  1
  Li  Li12  1  0.12948268  0.25912387  0.34106359  1
  Li  Li13  1  0.12953357  0.87044068  0.84108033  1
  Li  Li14  1  0.46358165  0.92581357  0.50873439  1
  Li  Li15  1  0.12960389  0.25906056  0.84097162  1
  Li  Li16  1  0.74093262  0.87038049  0.34096864  1
  Li  Li17  1  0.74088225  0.87051435  0.84108668  1
  Br  Br18  1  0.90760832  0.45366840  0.24826707  1
  Br  Br19  1  0.90749176  0.45388868  0.74829120  1
  Br  Br20  1  0.87972849  0.75890952  0.41427214  1
  Br  Br21  1  0.87920973  0.12024293  0.41435118  1
  Br  Br22  1  0.21341514  0.78778774  0.58157437  1
  Br  Br23  1  0.54636341  0.45391630  0.24831287  1
  Br  Br24  1  0.87924144  0.75902372  0.91429687  1
  Br  Br25  1  0.87975612  0.12079276  0.91435561  1
  Br  Br26  1  0.54611114  0.09251284  0.24830093  1
  Br  Br27  1  0.54609648  0.45362707  0.74830979  1
  Br  Br28  1  0.24109998  0.12028550  0.91426993  1
  Br  Br29  1  0.24096913  0.12076398  0.41429178  1
  Br  Br30  1  0.21224582  0.42566907  0.58155370  1
  Br  Br31  1  0.21221747  0.78659549  0.08157094  1
  Br  Br32  1  0.54633429  0.09238857  0.74827485  1
  Br  Br33  1  0.21336980  0.42557827  0.08151466  1
  Br  Br34  1  0.57443820  0.78663118  0.58151230  1
  Br  Br35  1  0.57433240  0.78775545  0.08153758  1
