# generated using pymatgen
data_LiBr
_symmetry_space_group_name_H-M   'P 1'
_cell_length_a   4.22049805
_cell_length_b   7.56213100
_cell_length_c   7.33348662
_cell_angle_alpha   89.99998391
_cell_angle_beta   120.53939986
_cell_angle_gamma   90.00002991
_symmetry_Int_Tables_number   1
_chemical_formula_structural   LiBr
_chemical_formula_sum   'Li4 Br4'
_cell_volume   201.58710054
_cell_formula_units_Z   4
loop_
 _symmetry_equiv_pos_site_id
 _symmetry_equiv_pos_as_xyz
  1  'x, y, z'
loop_
 _atom_site_type_symbol
 _atom_site_label
 _atom_site_symmetry_multiplicity
 _atom_site_fract_x
 _atom_site_fract_y
 _atom_site_fract_z
 _atom_site_occupancy
  Li  Li0  1  0.17370901  0.67650561  0.16796314  1
  Li  Li1  1  0.82629116  0.17650548  0.33203696  1
  Li  Li2  1  0.82629110  0.32349450  0.83203697  1
  Li  Li3  1  0.17370866  0.82349433  0.66796304  1
  Br  Br4  1  0.23967473  0.15760978  0.73570915  1
  Br  Br5  1  0.76032475  0.65761044  0.76429077  1
  Br  Br6  1  0.76032523  0.84238958  0.26429069  1
  Br  Br7  1  0.23967535  0.34239028  0.23570928  1
