# generated using pymatgen
data_LiBr
_symmetry_space_group_name_H-M   'P 1'
_cell_length_a   6.91926685
_cell_length_b   4.29182637
_cell_length_c   6.79488387
_cell_angle_alpha   89.99819601
_cell_angle_beta   89.99994704
_cell_angle_gamma   89.99994111
_symmetry_Int_Tables_number   1
_chemical_formula_structural   LiBr
_chemical_formula_sum   'Li4 Br4'
_cell_volume   201.78285480
_cell_formula_units_Z   4
loop_
 _symmetry_equiv_pos_site_id
 _symmetry_equiv_pos_as_xyz
  1  'x, y, z'
loop_
 _atom_site_type_symbol
 _atom_site_label
 _atom_site_symmetry_multiplicity
 _atom_site_fract_x
 _atom_site_fract_y
 _atom_site_fract_z
 _atom_site_occupancy
  Li  Li0  1  0.08247902  0.24956600  0.54949117  1
  Li  Li1  1  0.58246310  0.75044133  0.54947690  1
  Li  Li2  1  0.91753661  0.75044097  0.04947440  1
  Li  Li3  1  0.41752116  0.24956877  0.04948680  1
  Br  Br4  1  0.92646942  0.74898489  0.67406282  1
  Br  Br5  1  0.42646950  0.25100652  0.67406880  1
  Br  Br6  1  0.07353009  0.25100570  0.17406937  1
  Br  Br7  1  0.57353111  0.74898583  0.17406219  1
