# generated using pymatgen
data_LiI
_symmetry_space_group_name_H-M   'P 1'
_cell_length_a   9.75058754
_cell_length_b   9.75229253
_cell_length_c   11.82413396
_cell_angle_alpha   90.00094274
_cell_angle_beta   89.99947423
_cell_angle_gamma   90.00859129
_symmetry_Int_Tables_number   1
_chemical_formula_structural   LiI
_chemical_formula_sum   'Li16 I16'
_cell_volume   1124.36376724
_cell_formula_units_Z   16
loop_
 _symmetry_equiv_pos_site_id
 _symmetry_equiv_pos_as_xyz
  1  'x, y, z'
loop_
 _atom_site_type_symbol
 _atom_site_label
 _atom_site_symmetry_multiplicity
 _atom_site_fract_x
 _atom_site_fract_y
 _atom_site_fract_z
 _atom_site_occupancy
  Li  Li0  1  0.15382948  0.26294376  0.12148944  1
  Li  Li1  1  0.23714265  0.65385767  0.37857347  1
  Li  Li2  1  0.15384699  0.76284271  0.12852130  1
  Li  Li3  1  0.84610097  0.73718762  0.12145192  1
  Li  Li4  1  0.76285254  0.34623222  0.37850428  1
  Li  Li5  1  0.73717574  0.65384721  0.37142064  1
  Li  Li6  1  0.26284965  0.34618660  0.37149141  1
  Li  Li7  1  0.23716484  0.15374946  0.87148298  1
  Li  Li8  1  0.76280928  0.84615122  0.87143345  1
  Li  Li9  1  0.34615382  0.23702836  0.62148573  1
  Li  Li10  1  0.26280040  0.84618004  0.87856961  1
  Li  Li11  1  0.65389670  0.76285653  0.62145684  1
  Li  Li12  1  0.73719121  0.15380844  0.87850271  1
  Li  Li13  1  0.65392549  0.26292320  0.62852793  1
  Li  Li14  1  0.34614371  0.73716397  0.62852657  1
  Li  Li15  1  0.84612500  0.23704991  0.12851990  1
  I  I16  1  0.99101005  0.28727295  0.93011727  1
  I  I17  1  0.21283886  0.49107322  0.56989202  1
  I  I18  1  0.99102399  0.78729964  0.31987316  1
  I  I19  1  0.00897011  0.71270789  0.93010702  1
  I  I20  1  0.78724908  0.50891725  0.56991867  1
  I  I21  1  0.71282541  0.49108835  0.18004604  1
  I  I22  1  0.28727064  0.50893687  0.18017847  1
  I  I23  1  0.21277724  0.99109585  0.68018795  1
  I  I24  1  0.78719454  0.00890406  0.68006724  1
  I  I25  1  0.50899856  0.21275315  0.43009929  1
  I  I26  1  0.28715490  0.00887782  0.06986165  1
  I  I27  1  0.49099507  0.78728530  0.43008962  1
  I  I28  1  0.71270026  0.99108571  0.06989689  1
  I  I29  1  0.49101046  0.28724674  0.81991702  1
  I  I30  1  0.50899007  0.71266382  0.81989766  1
  I  I31  1  0.00898228  0.21278245  0.31989184  1
