# generated using pymatgen
data_LiI
_symmetry_space_group_name_H-M   'P 1'
_cell_length_a   8.05022685
_cell_length_b   8.05023016
_cell_length_c   4.38202601
_cell_angle_alpha   90.00116492
_cell_angle_beta   89.99982566
_cell_angle_gamma   90.00004973
_symmetry_Int_Tables_number   1
_chemical_formula_structural   LiI
_chemical_formula_sum   'Li4 I4'
_cell_volume   283.98236214
_cell_formula_units_Z   4
loop_
 _symmetry_equiv_pos_site_id
 _symmetry_equiv_pos_as_xyz
  1  'x, y, z'
loop_
 _atom_site_type_symbol
 _atom_site_label
 _atom_site_symmetry_multiplicity
 _atom_site_fract_x
 _atom_site_fract_y
 _atom_site_fract_z
 _atom_site_occupancy
  Li  Li0  1  0.56709158  0.83810838  -0.02023464  1
  Li  Li1  1  0.83810838  0.43290873  0.22977054  1
  Li  Li2  1  0.43290669  0.16189262  0.47977823  1
  Li  Li3  1  0.16189349  0.56709145  0.72977237  1
  I  I4  1  0.17339174  0.35101629  0.23538695  1
  I  I5  1  0.35101785  0.82660708  0.48538564  1
  I  I6  1  0.82660891  0.64898267  0.73539040  1
  I  I7  1  0.64898137  0.17339279  0.98539269  1
