# generated using pymatgen
data_KI
_symmetry_space_group_name_H-M   'P 1'
_cell_length_a   8.76215317
_cell_length_b   5.07753342
_cell_length_c   5.10484304
_cell_angle_alpha   89.99680171
_cell_angle_beta   125.10897078
_cell_angle_gamma   90.00176944
_symmetry_Int_Tables_number   1
_chemical_formula_structural   KI
_chemical_formula_sum   'K2 I2'
_cell_volume   185.79371207
_cell_formula_units_Z   2
loop_
 _symmetry_equiv_pos_site_id
 _symmetry_equiv_pos_as_xyz
  1  'x, y, z'
loop_
 _atom_site_type_symbol
 _atom_site_label
 _atom_site_symmetry_multiplicity
 _atom_site_fract_x
 _atom_site_fract_y
 _atom_site_fract_z
 _atom_site_occupancy
  K  K0  1  0.75106386  0.75719529  0.50304482  1
  K  K1  1  0.24893616  0.25719640  0.49695604  1
  I  I2  1  0.74980240  0.25705059  0.00141026  1
  I  I3  1  0.25019759  0.75704928  -0.00141112  1
