# generated using pymatgen
data_LiBr
_symmetry_space_group_name_H-M   'P 1'
_cell_length_a   8.12619477
_cell_length_b   4.15259375
_cell_length_c   5.97619830
_cell_angle_alpha   90.00009967
_cell_angle_beta   89.99906784
_cell_angle_gamma   89.99986355
_symmetry_Int_Tables_number   1
_chemical_formula_structural   LiBr
_chemical_formula_sum   'Li4 Br4'
_cell_volume   201.66553017
_cell_formula_units_Z   4
loop_
 _symmetry_equiv_pos_site_id
 _symmetry_equiv_pos_as_xyz
  1  'x, y, z'
loop_
 _atom_site_type_symbol
 _atom_site_label
 _atom_site_symmetry_multiplicity
 _atom_site_fract_x
 _atom_site_fract_y
 _atom_site_fract_z
 _atom_site_occupancy
  Li  Li0  1  0.87580246  -0.25205403  0.54744504  1
  Li  Li1  1  0.37581128  0.75203762  0.54740917  1
  Li  Li2  1  0.12419653  0.25204761  0.04744740  1
  Li  Li3  1  0.62418754  0.24796867  0.04742236  1
  Br  Br4  1  0.12560412  0.75213104  0.29337964  1
  Br  Br5  1  0.62560927  0.74787973  0.29335801  1
  Br  Br6  1  0.87439484  0.24786548  0.79338006  1
  Br  Br7  1  0.37439396  0.25212389  0.79335728  1
