# generated using pymatgen
data_LiBr
_symmetry_space_group_name_H-M   'P 1'
_cell_length_a   12.39790289
_cell_length_b   12.39787598
_cell_length_c   12.39789056
_cell_angle_alpha   89.99996567
_cell_angle_beta   90.00011556
_cell_angle_gamma   90.00034813
_symmetry_Int_Tables_number   1
_chemical_formula_structural   LiBr
_chemical_formula_sum   'Li24 Br24'
_cell_volume   1905.65077559
_cell_formula_units_Z   24
loop_
 _symmetry_equiv_pos_site_id
 _symmetry_equiv_pos_as_xyz
  1  'x, y, z'
loop_
 _atom_site_type_symbol
 _atom_site_label
 _atom_site_symmetry_multiplicity
 _atom_site_fract_x
 _atom_site_fract_y
 _atom_site_fract_z
 _atom_site_occupancy
  Li  Li0  1  0.57408972  0.25651082  0.66384585  1
  Li  Li1  1  0.07408708  0.24348608  0.33615205  1
  Li  Li2  1  0.16384626  0.57408799  0.24348667  1
  Li  Li3  1  0.16384813  -0.07408693  0.74348751  1
  Li  Li4  1  0.75651325  0.83615198  0.42591307  1
  Li  Li5  1  0.66384682  0.57408744  0.25651239  1
  Li  Li6  1  0.33615308  0.07408715  0.24348813  1
  Li  Li7  1  0.83615188  0.42591292  0.75651364  1
  Li  Li8  1  0.74348853  0.16384642  -0.07408800  1
  Li  Li9  1  0.25651226  0.66384714  0.57408903  1
  Li  Li10  1  0.24348513  0.33615048  0.07408850  1
  Li  Li11  1  0.42591262  0.75651283  0.83615226  1
  Li  Li12  1  -0.07408951  0.74348884  0.16384662  1
  Li  Li13  1  0.33615473  0.42591209  0.74348880  1
  Li  Li14  1  0.66384858  -0.07408864  0.75651277  1
  Li  Li15  1  0.83615069  0.07408848  0.25651264  1
  Li  Li16  1  0.24348668  0.16384776  0.57408739  1
  Li  Li17  1  0.25651334  0.83615333  0.07408757  1
  Li  Li18  1  0.74348805  0.33615395  0.42591033  1
  Li  Li19  1  0.75651234  0.66384759  -0.07408809  1
  Li  Li20  1  0.57408635  0.24348905  0.16384579  1
  Li  Li21  1  0.07408830  0.25651345  0.83615096  1
  Li  Li22  1  0.42591230  0.74348695  0.33615241  1
  Li  Li23  1  -0.07408648  0.75651300  0.66384924  1
  Br  Br24  1  0.61200134  0.70650112  0.39335699  1
  Br  Br25  1  0.11200048  0.79349889  0.60664412  1
  Br  Br26  1  0.89335611  0.61199892  0.79349857  1
  Br  Br27  1  0.89335632  0.88800022  0.29349785  1
  Br  Br28  1  0.20650091  0.10664329  0.38800122  1
  Br  Br29  1  0.39335669  0.61199821  0.70650224  1
  Br  Br30  1  0.60664368  0.11200025  0.79349755  1
  Br  Br31  1  0.10664267  0.38800181  0.20650218  1
  Br  Br32  1  0.29349974  0.89335646  0.88800079  1
  Br  Br33  1  0.70650199  0.39335588  0.61199899  1
  Br  Br34  1  0.79349813  0.60664374  0.11199935  1
  Br  Br35  1  0.38799907  0.20650063  0.10664465  1
  Br  Br36  1  0.88799881  0.29349814  0.89335708  1
  Br  Br37  1  0.60664377  0.38800124  0.29349707  1
  Br  Br38  1  0.39335754  0.88799848  0.20650206  1
  Br  Br39  1  0.10664315  0.11200055  0.70650120  1
  Br  Br40  1  0.79349996  0.89335623  0.61199968  1
  Br  Br41  1  0.70650005  0.10664463  0.11199911  1
  Br  Br42  1  0.29349759  0.60664375  0.38800014  1
  Br  Br43  1  0.20650233  0.39335680  0.88800051  1
  Br  Br44  1  0.61199964  0.79349917  0.89335657  1
  Br  Br45  1  0.11199956  0.70650286  0.10664298  1
  Br  Br46  1  0.38800071  0.29349766  0.60664479  1
  Br  Br47  1  0.88799963  0.20650094  0.39335679  1
