# generated using pymatgen
data_LiI
_symmetry_space_group_name_H-M   'P 1'
_cell_length_a   13.15361903
_cell_length_b   13.15355788
_cell_length_c   7.75540557
_cell_angle_alpha   89.98582643
_cell_angle_beta   90.01405987
_cell_angle_gamma   120.03575874
_symmetry_Int_Tables_number   1
_chemical_formula_structural   LiI
_chemical_formula_sum   'Li18 I18'
_cell_volume   1161.62787800
_cell_formula_units_Z   18
loop_
 _symmetry_equiv_pos_site_id
 _symmetry_equiv_pos_as_xyz
  1  'x, y, z'
loop_
 _atom_site_type_symbol
 _atom_site_label
 _atom_site_symmetry_multiplicity
 _atom_site_fract_x
 _atom_site_fract_y
 _atom_site_fract_z
 _atom_site_occupancy
  Li  Li0  1  0.50293473  0.87670863  0.10369245  1
  Li  Li1  1  0.50284917  0.62630993  0.60359685  1
  Li  Li2  1  0.45657674  0.16370474  0.27238793  1
  Li  Li3  1  0.70706866  0.54321441  0.27243295  1
  Li  Li4  1  0.79006888  0.95969336  0.43776395  1
  Li  Li5  1  0.12346819  0.62621614  0.10367636  1
  Li  Li6  1  0.70703020  0.16376664  0.77235706  1
  Li  Li7  1  0.45678685  0.29293261  0.77243214  1
  Li  Li8  1  0.37368994  0.49714917  0.10359712  1
  Li  Li9  1  0.37378485  0.87653362  0.60367746  1
  Li  Li10  1  0.83629501  0.54342248  0.77238791  1
  Li  Li11  1  0.83623185  0.29296979  0.27235717  1
  Li  Li12  1  0.04018234  0.83009908  0.43677623  1
  Li  Li13  1  0.04030601  0.20993114  0.93776671  1
  Li  Li14  1  0.12329094  0.49706497  0.60369225  1
  Li  Li15  1  0.78986606  0.83006479  0.93718407  1
  Li  Li16  1  0.16993324  0.21013307  0.43719152  1
  Li  Li17  1  0.16989929  0.95981779  0.93677874  1
  I  I18  1  0.16499521  0.70601248  0.44444440  1
  I  I19  1  0.16481352  0.45884615  -0.05560917  1
  I  I20  1  0.62734880  0.50180949  0.61302151  1
  I  I21  1  0.87431411  0.37257234  0.61299845  1
  I  I22  1  -0.03910687  0.79231103  0.77772657  1
  I  I23  1  0.29406681  0.45904275  0.44444233  1
  I  I24  1  0.87446498  0.50188890  0.11287043  1
  I  I25  1  0.62742853  0.12568593  0.11299710  1
  I  I26  1  0.54115413  0.83518621  0.44439071  1
  I  I27  1  0.54095647  0.70593374  -0.05555668  1
  I  I28  1  0.49819154  0.37265056  0.11302156  1
  I  I29  1  0.49811110  0.12553598  0.61287033  1
  I  I30  1  0.20785923  0.16872861  0.77781734  1
  I  I31  1  0.20768900  0.03910774  0.27772972  1
  I  I32  1  0.29398730  0.83500620  -0.05555554  1
  I  I33  1  -0.03924773  0.16856107  0.27832592  1
  I  I34  1  0.83143964  0.03924700  0.77832560  1
  I  I35  1  0.83127128  0.79214145  0.27781290  1
