# generated using pymatgen
data_LiBr
_symmetry_space_group_name_H-M   'P 1'
_cell_length_a   9.84788044
_cell_length_b   9.84788608
_cell_length_c   10.17638197
_cell_angle_alpha   89.99976978
_cell_angle_beta   90.00021049
_cell_angle_gamma   120.01571979
_symmetry_Int_Tables_number   1
_chemical_formula_structural   LiBr
_chemical_formula_sum   'Li12 Br12'
_cell_volume   854.55692815
_cell_formula_units_Z   12
loop_
 _symmetry_equiv_pos_site_id
 _symmetry_equiv_pos_as_xyz
  1  'x, y, z'
loop_
 _atom_site_type_symbol
 _atom_site_label
 _atom_site_symmetry_multiplicity
 _atom_site_fract_x
 _atom_site_fract_y
 _atom_site_fract_z
 _atom_site_occupancy
  Li  Li0  1  0.86301571  0.13700758  0.87514341  1
  Li  Li1  1  0.86302103  0.72606762  0.87514159  1
  Li  Li2  1  0.72606050  0.86303057  0.12485357  1
  Li  Li3  1  0.13698268  0.86299192  0.12485650  1
  Li  Li4  1  0.27393310  0.13697815  0.37514229  1
  Li  Li5  1  0.86299188  0.13698302  0.37514363  1
  Li  Li6  1  0.86303096  0.72606085  0.37514620  1
  Li  Li7  1  0.13697845  0.27393337  0.12485748  1
  Li  Li8  1  0.13696988  0.27394046  0.62485310  1
  Li  Li9  1  0.72606819  0.86302096  0.62485792  1
  Li  Li10  1  0.13700838  0.86301771  0.62485666  1
  Li  Li11  1  0.27393986  0.13696994  0.87514720  1
  Br  Br12  1  0.83757018  0.67522504  0.12508400  1
  Br  Br13  1  0.32477297  0.16238875  0.12508612  1
  Br  Br14  1  0.16236591  0.83760308  0.87491579  1
  Br  Br15  1  0.16242899  0.32477434  0.87491570  1
  Br  Br16  1  0.83761172  0.67522606  0.62508582  1
  Br  Br17  1  0.32477525  0.16243047  0.62508444  1
  Br  Br18  1  0.83760235  0.16236505  0.62508434  1
  Br  Br19  1  0.67522556  0.83761055  0.87491408  1
  Br  Br20  1  0.16239831  0.83763379  0.37491569  1
  Br  Br21  1  0.16238868  0.32477262  0.37491388  1
  Br  Br22  1  0.67522604  0.83757041  0.37491606  1
  Br  Br23  1  0.83763344  0.16239772  0.12508452  1
