# generated using pymatgen
data_LiBr
_symmetry_space_group_name_H-M   'P 1'
_cell_length_a   12.43441996
_cell_length_b   12.43446616
_cell_length_c   12.43439279
_cell_angle_alpha   89.99999666
_cell_angle_beta   90.00008449
_cell_angle_gamma   89.99995551
_symmetry_Int_Tables_number   1
_chemical_formula_structural   LiBr
_chemical_formula_sum   'Li24 Br24'
_cell_volume   1922.54829464
_cell_formula_units_Z   24
loop_
 _symmetry_equiv_pos_site_id
 _symmetry_equiv_pos_as_xyz
  1  'x, y, z'
loop_
 _atom_site_type_symbol
 _atom_site_label
 _atom_site_symmetry_multiplicity
 _atom_site_fract_x
 _atom_site_fract_y
 _atom_site_fract_z
 _atom_site_occupancy
  Li  Li0  1  0.59533922  0.63973755  0.40578552  1
  Li  Li1  1  0.09533859  0.86026259  0.59421472  1
  Li  Li2  1  0.90578417  0.59533808  0.86026312  1
  Li  Li3  1  0.90578474  0.90466073  0.36026298  1
  Li  Li4  1  0.13973794  0.09421358  0.40465995  1
  Li  Li5  1  0.40578473  0.59533887  0.63973784  1
  Li  Li6  1  0.59421488  0.09534080  0.86026293  1
  Li  Li7  1  0.09421572  0.40466158  0.13973709  1
  Li  Li8  1  0.36026379  0.90578486  0.90465877  1
  Li  Li9  1  0.63973706  0.40578538  0.59534009  1
  Li  Li10  1  0.86026219  0.59421412  0.09534057  1
  Li  Li11  1  0.40465975  0.13973590  0.09421541  1
  Li  Li12  1  0.90466102  0.36026215  0.90578567  1
  Li  Li13  1  0.59421494  0.40466192  0.36026232  1
  Li  Li14  1  0.40578572  0.90465947  0.13973655  1
  Li  Li15  1  0.09421506  0.09533854  0.63973713  1
  Li  Li16  1  0.86026215  0.90578579  0.59534025  1
  Li  Li17  1  0.63973708  0.09421557  0.09534040  1
  Li  Li18  1  0.36026229  0.59421520  0.40466026  1
  Li  Li19  1  0.13973749  0.40578531  0.90465985  1
  Li  Li20  1  0.59534128  0.86026445  0.90578429  1
  Li  Li21  1  0.09533865  0.63973750  0.09421452  1
  Li  Li22  1  0.40465989  0.36026310  0.59421436  1
  Li  Li23  1  0.90466154  0.13973688  0.40578512  1
  Br  Br24  1  0.48936269  0.95917945  0.76599744  1
  Br  Br25  1  -0.01063820  0.54082201  0.23400224  1
  Br  Br26  1  0.26599804  0.48936132  0.54082188  1
  Br  Br27  1  0.26599896  0.01063755  0.04082079  1
  Br  Br28  1  0.45917763  0.73400082  0.51064002  1
  Br  Br29  1  0.76599859  0.48935892  0.95917948  1
  Br  Br30  1  0.23400136  -0.01064055  0.54082225  1
  Br  Br31  1  0.73400110  0.51063984  0.45917854  1
  Br  Br32  1  0.04082397  0.26599897  0.01063938  1
  Br  Br33  1  0.95917649  0.76599896  0.48936154  1
  Br  Br34  1  0.54082088  0.23400137  -0.01063805  1
  Br  Br35  1  0.51063838  0.45917733  0.73400191  1
  Br  Br36  1  0.01063938  0.04082095  0.26599811  1
  Br  Br37  1  0.23400110  0.51064088  0.04082065  1
  Br  Br38  1  0.76599880  0.01064017  0.45917809  1
  Br  Br39  1  0.73400206  -0.01063690  0.95917860  1
  Br  Br40  1  0.54082189  0.26599989  0.48936006  1
  Br  Br41  1  0.95917548  0.73400066  -0.01063877  1
  Br  Br42  1  0.04082363  0.23400044  0.51063853  1
  Br  Br43  1  0.45917973  0.76599886  0.01063726  1
  Br  Br44  1  0.48936054  0.54082303  0.26599834  1
  Br  Br45  1  -0.01063914  0.95917807  0.73400212  1
  Br  Br46  1  0.51063871  0.04082064  0.23400183  1
  Br  Br47  1  0.01063805  0.45917742  0.76599804  1
