# generated using pymatgen
data_KBr
_symmetry_space_group_name_H-M   'P 1'
_cell_length_a   13.00962090
_cell_length_b   13.00962051
_cell_length_c   4.60837444
_cell_angle_alpha   89.99937282
_cell_angle_beta   89.99954852
_cell_angle_gamma   90.00002053
_symmetry_Int_Tables_number   1
_chemical_formula_structural   KBr
_chemical_formula_sum   'K8 Br8'
_cell_volume   779.96843769
_cell_formula_units_Z   8
loop_
 _symmetry_equiv_pos_site_id
 _symmetry_equiv_pos_as_xyz
  1  'x, y, z'
loop_
 _atom_site_type_symbol
 _atom_site_label
 _atom_site_symmetry_multiplicity
 _atom_site_fract_x
 _atom_site_fract_y
 _atom_site_fract_z
 _atom_site_occupancy
  K  K0  1  0.50019835  0.16312157  0.01548950  1
  K  K1  1  0.33687852  0.50019831  0.76549110  1
  K  K2  1  0.16312153  -0.00019994  0.26548924  1
  K  K3  1  0.83687881  0.00019925  0.26549085  1
  K  K4  1  0.66312130  0.49979916  0.76548875  1
  K  K5  1  0.00019927  0.66312132  0.51548885  1
  K  K6  1  -0.00019998  0.33687860  0.51549113  1
  K  K7  1  0.49979906  0.83687888  0.01549080  1
  Br  Br8  1  -0.00031766  0.83466913  0.00950243  1
  Br  Br9  1  0.66533145  -0.00031750  0.75951178  1
  Br  Br10  1  0.83466935  0.50031848  0.25950505  1
  Br  Br11  1  0.16533133  0.49968201  0.25951138  1
  Br  Br12  1  0.33466946  0.00031903  0.75950488  1
  Br  Br13  1  0.49968186  0.33466924  0.50950247  1
  Br  Br14  1  0.50031841  0.66533130  0.50951453  1
  Br  Br15  1  0.00031896  0.16533117  0.00951421  1
