# generated using pymatgen
data_LiBr
_symmetry_space_group_name_H-M   'P 1'
_cell_length_a   5.51335275
_cell_length_b   5.50327698
_cell_length_c   5.50508142
_cell_angle_alpha   89.99999667
_cell_angle_beta   89.99308754
_cell_angle_gamma   89.99999902
_symmetry_Int_Tables_number   1
_chemical_formula_structural   LiBr
_chemical_formula_sum   'Li4 Br4'
_cell_volume   167.03246676
_cell_formula_units_Z   4
loop_
 _symmetry_equiv_pos_site_id
 _symmetry_equiv_pos_as_xyz
  1  'x, y, z'
loop_
 _atom_site_type_symbol
 _atom_site_label
 _atom_site_symmetry_multiplicity
 _atom_site_fract_x
 _atom_site_fract_y
 _atom_site_fract_z
 _atom_site_occupancy
  Li  Li0  1  0.96199969  0.24957317  0.63143295  1
  Li  Li1  1  0.46199881  0.74957136  0.63143077  1
  Li  Li2  1  0.96199968  0.75042688  0.13143288  1
  Li  Li3  1  0.46199878  0.25042873  0.13143063  1
  Br  Br4  1  0.96354625  0.24930999  0.13176444  1
  Br  Br5  1  0.46354629  0.74931016  0.13176428  1
  Br  Br6  1  0.96354625  0.75068995  0.63176453  1
  Br  Br7  1  0.46354629  0.25068977  0.63176437  1
