# generated using pymatgen
data_LiI
_symmetry_space_group_name_H-M   'P 1'
_cell_length_a   4.27932842
_cell_length_b   4.27932563
_cell_length_c   11.79937702
_cell_angle_alpha   89.99999005
_cell_angle_beta   89.99996630
_cell_angle_gamma   89.99857417
_symmetry_Int_Tables_number   1
_chemical_formula_structural   LiI
_chemical_formula_sum   'Li4 I4'
_cell_volume   216.07774101
_cell_formula_units_Z   4
loop_
 _symmetry_equiv_pos_site_id
 _symmetry_equiv_pos_as_xyz
  1  'x, y, z'
loop_
 _atom_site_type_symbol
 _atom_site_label
 _atom_site_symmetry_multiplicity
 _atom_site_fract_x
 _atom_site_fract_y
 _atom_site_fract_z
 _atom_site_occupancy
  Li  Li0  1  -0.00447230  0.50060785  0.19017724  1
  Li  Li1  1  0.50063798  0.00448135  0.94017324  1
  Li  Li2  1  0.00453054  0.49939338  0.69017869  1
  Li  Li3  1  0.49942373  -0.00447300  0.44017522  1
  I  I4  1  0.49695312  0.00078095  0.19021269  1
  I  I5  1  0.00075992  0.50299803  0.94021388  1
  I  I6  1  0.50299376  -0.00079804  0.69021025  1
  I  I7  1  -0.00082676  0.49700949  0.44021064  1
