# generated using pymatgen
data_LiBr
_symmetry_space_group_name_H-M   'P 1'
_cell_length_a   4.47813006
_cell_length_b   7.77804065
_cell_length_c   7.14761815
_cell_angle_alpha   89.99999849
_cell_angle_beta   128.09714052
_cell_angle_gamma   90.00000372
_symmetry_Int_Tables_number   1
_chemical_formula_structural   LiBr
_chemical_formula_sum   'Li4 Br4'
_cell_volume   195.92241363
_cell_formula_units_Z   4
loop_
 _symmetry_equiv_pos_site_id
 _symmetry_equiv_pos_as_xyz
  1  'x, y, z'
loop_
 _atom_site_type_symbol
 _atom_site_label
 _atom_site_symmetry_multiplicity
 _atom_site_fract_x
 _atom_site_fract_y
 _atom_site_fract_z
 _atom_site_occupancy
  Li  Li0  1  0.43713874  0.08344643  0.99653687  1
  Li  Li1  1  0.93713069  0.58344772  0.99652981  1
  Li  Li2  1  0.43713327  0.91655252  0.49653170  1
  Li  Li3  1  0.93713727  0.41655375  0.49653635  1
  Br  Br4  1  0.92781966  0.91613089  -0.01256557  1
  Br  Br5  1  0.42781795  0.41613065  -0.01256625  1
  Br  Br6  1  0.92781841  0.08386901  0.48743360  1
  Br  Br7  1  0.42781894  0.58386902  0.48743442  1
