# generated using pymatgen
data_LiBr
_symmetry_space_group_name_H-M   'P 1'
_cell_length_a   10.04089312
_cell_length_b   10.04047301
_cell_length_c   3.88254719
_cell_angle_alpha   89.99684490
_cell_angle_beta   90.00234043
_cell_angle_gamma   120.00594958
_symmetry_Int_Tables_number   1
_chemical_formula_structural   LiBr
_chemical_formula_sum   'Li6 Br6'
_cell_volume   338.95953178
_cell_formula_units_Z   6
loop_
 _symmetry_equiv_pos_site_id
 _symmetry_equiv_pos_as_xyz
  1  'x, y, z'
loop_
 _atom_site_type_symbol
 _atom_site_label
 _atom_site_symmetry_multiplicity
 _atom_site_fract_x
 _atom_site_fract_y
 _atom_site_fract_z
 _atom_site_occupancy
  Li  Li0  1  0.66002359  0.08195687  0.92514575  1
  Li  Li1  1  0.57803003  0.65997866  0.75836476  1
  Li  Li2  1  0.42196685  0.34000905  0.25839224  1
  Li  Li3  1  0.08201530  0.42203560  0.09164730  1
  Li  Li4  1  0.91799285  0.57796574  0.59161369  1
  Li  Li5  1  0.33997429  0.91804334  0.42513537  1
  Br  Br6  1  0.69323506  0.57695838  0.26677564  1
  Br  Br7  1  0.11626970  0.69325944  0.10000383  1
  Br  Br8  1  0.88373370  0.30674382  0.60002950  1
  Br  Br9  1  0.57688251  0.88367328  0.43355809  1
  Br  Br10  1  0.42311842  0.11633613  0.93351386  1
  Br  Br11  1  0.30675770  0.42303970  0.76676111  1
