# generated using pymatgen
data_NaBr
_symmetry_space_group_name_H-M   'P 1'
_cell_length_a   8.50841708
_cell_length_b   6.03846833
_cell_length_c   4.27974513
_cell_angle_alpha   89.99999900
_cell_angle_beta   89.99989987
_cell_angle_gamma   90.00000006
_symmetry_Int_Tables_number   1
_chemical_formula_structural   NaBr
_chemical_formula_sum   'Na4 Br4'
_cell_volume   219.88391992
_cell_formula_units_Z   4
loop_
 _symmetry_equiv_pos_site_id
 _symmetry_equiv_pos_as_xyz
  1  'x, y, z'
loop_
 _atom_site_type_symbol
 _atom_site_label
 _atom_site_symmetry_multiplicity
 _atom_site_fract_x
 _atom_site_fract_y
 _atom_site_fract_z
 _atom_site_occupancy
  Na  Na0  1  0.62445230  0.24959851  0.50028236  1
  Na  Na1  1  0.37554764  0.74959848  -0.00027813  1
  Na  Na2  1  0.87554691  0.75040166  0.00027155  1
  Na  Na3  1  0.12445303  0.25040163  0.49972423  1
  Br  Br4  1  0.12519467  0.75043034  0.49956981  1
  Br  Br5  1  0.87480539  0.25043034  0.00042976  1
  Br  Br6  1  0.37480596  0.24956952  -0.00042485  1
  Br  Br7  1  0.62519410  0.74956952  0.50042528  1
