# generated using pymatgen
data_KI
_symmetry_space_group_name_H-M   'P 1'
_cell_length_a   5.08526062
_cell_length_b   5.08839412
_cell_length_c   14.36740159
_cell_angle_alpha   89.99999268
_cell_angle_beta   90.00000064
_cell_angle_gamma   89.99999983
_symmetry_Int_Tables_number   1
_chemical_formula_structural   KI
_chemical_formula_sum   'K4 I4'
_cell_volume   371.76815697
_cell_formula_units_Z   4
loop_
 _symmetry_equiv_pos_site_id
 _symmetry_equiv_pos_as_xyz
  1  'x, y, z'
loop_
 _atom_site_type_symbol
 _atom_site_label
 _atom_site_symmetry_multiplicity
 _atom_site_fract_x
 _atom_site_fract_y
 _atom_site_fract_z
 _atom_site_occupancy
  K  K0  1  0.25264016  0.00158055  0.62487244  1
  K  K1  1  0.74735983  0.50158077  0.87512763  1
  K  K2  1  0.24735982  0.99841922  0.12487235  1
  K  K3  1  0.75264020  0.49841944  0.37512758  1
  I  I4  1  0.24701567  0.00269040  0.87474022  1
  I  I5  1  0.75298432  0.50269020  0.62525975  1
  I  I6  1  0.25298435  0.99730981  0.37474024  1
  I  I7  1  0.74701565  0.49730961  0.12525979  1
