# generated using pymatgen
data_LiBr
_symmetry_space_group_name_H-M   'P 1'
_cell_length_a   7.05352381
_cell_length_b   4.30308160
_cell_length_c   6.82479020
_cell_angle_alpha   90.00008287
_cell_angle_beta   103.80716189
_cell_angle_gamma   90.00003694
_symmetry_Int_Tables_number   1
_chemical_formula_structural   LiBr
_chemical_formula_sum   'Li4 Br4'
_cell_volume   201.15969596
_cell_formula_units_Z   4
loop_
 _symmetry_equiv_pos_site_id
 _symmetry_equiv_pos_as_xyz
  1  'x, y, z'
loop_
 _atom_site_type_symbol
 _atom_site_label
 _atom_site_symmetry_multiplicity
 _atom_site_fract_x
 _atom_site_fract_y
 _atom_site_fract_z
 _atom_site_occupancy
  Li  Li0  1  0.10027776  0.25208827  0.03597699  1
  Li  Li1  1  0.60028176  0.75209185  0.03598876  1
  Li  Li2  1  0.10027376  0.74791259  0.53597771  1
  Li  Li3  1  0.60027573  0.24790802  0.53598664  1
  Br  Br4  1  0.97161921  0.75228195  0.15615854  1
  Br  Br5  1  0.47162075  0.25228807  0.15616547  1
  Br  Br6  1  0.97161099  0.24771891  0.65615656  1
  Br  Br7  1  0.47161553  0.74771034  0.65616665  1
