# generated using pymatgen
data_NaI
_symmetry_space_group_name_H-M   'P 1'
_cell_length_a   13.42548693
_cell_length_b   13.42553575
_cell_length_c   8.55363346
_cell_angle_alpha   90.06222486
_cell_angle_beta   89.93787926
_cell_angle_gamma   119.90908407
_symmetry_Int_Tables_number   1
_chemical_formula_structural   NaI
_chemical_formula_sum   'Na18 I18'
_cell_volume   1336.41007072
_cell_formula_units_Z   18
loop_
 _symmetry_equiv_pos_site_id
 _symmetry_equiv_pos_as_xyz
  1  'x, y, z'
loop_
 _atom_site_type_symbol
 _atom_site_label
 _atom_site_symmetry_multiplicity
 _atom_site_fract_x
 _atom_site_fract_y
 _atom_site_fract_z
 _atom_site_occupancy
  Na  Na0  1  0.13475790  0.72528869  0.90737812  1
  Na  Na1  1  0.13468135  0.40952711  0.40766669  1
  Na  Na2  1  0.60804608  0.53191086  0.07404193  1
  Na  Na3  1  0.92386590  0.39179607  0.07393269  1
  Na  Na4  1  0.94153559  0.74280001  0.24059890  1
  Na  Na5  1  0.27486783  0.40946477  0.90726354  1
  Na  Na6  1  0.92380620  0.53198399  0.57433525  1
  Na  Na7  1  0.60820219  0.07613221  0.57393164  1
  Na  Na8  1  0.59047255  0.86531990  0.90766752  1
  Na  Na9  1  0.59053424  0.72513311  0.40726689  1
  Na  Na10  1  0.46808937  0.39195342  0.57404282  1
  Na  Na11  1  0.46801626  0.07619342  0.07433510  1
  Na  Na12  1  0.25713832  0.19865064  0.24100219  1
  Na  Na13  1  0.25719914  0.05846330  0.74059960  1
  Na  Na14  1  0.27471308  0.86524515  0.40737654  1
  Na  Na15  1  0.94137658  0.19857877  0.74070785  1
  Na  Na16  1  0.80142111  0.05862097  0.24070989  1
  Na  Na17  1  0.80134994  0.74286285  0.74100134  1
  I  I18  1  0.10483684  0.49246783  0.76667780  1
  I  I19  1  0.10490816  0.61245141  0.26637540  1
  I  I20  1  0.84086375  0.56183046  0.93334680  1
  I  I21  1  0.72101983  0.15920266  0.93306752  1
  I  I22  1  0.17413167  -0.05435184  0.09973618  1
  I  I23  1  0.50746496  0.61231364  0.76640181  1
  I  I24  1  0.72088211  0.56175929  0.43304174  1
  I  I25  1  0.84080040  0.27898425  0.43306686  1
  I  I26  1  0.38754713  0.89509133  0.76637581  1
  I  I27  1  0.38768494  0.49253285  0.26639965  1
  I  I28  1  0.43816832  0.15913718  0.43334523  1
  I  I29  1  0.43824151  0.27912098  0.93304066  1
  I  I30  1  0.05421724  0.22842656  0.09970664  1
  I  I31  1  0.05435237  0.82586789  0.59973510  1
  I  I32  1  0.50753121  0.89516199  0.26667856  1
  I  I33  1  0.17419906  0.22849645  0.60001098  1
  I  I34  1  0.77150315  0.82579928  0.10001214  1
  I  I35  1  0.77157373  -0.05421747  0.59970706  1
