# generated using pymatgen
data_LiBr
_symmetry_space_group_name_H-M   'P 1'
_cell_length_a   3.95345924
_cell_length_b   3.95405929
_cell_length_c   13.01463825
_cell_angle_alpha   89.99644401
_cell_angle_beta   90.00137203
_cell_angle_gamma   99.58000235
_symmetry_Int_Tables_number   1
_chemical_formula_structural   LiBr
_chemical_formula_sum   'Li4 Br4'
_cell_volume   200.61034426
_cell_formula_units_Z   4
loop_
 _symmetry_equiv_pos_site_id
 _symmetry_equiv_pos_as_xyz
  1  'x, y, z'
loop_
 _atom_site_type_symbol
 _atom_site_label
 _atom_site_symmetry_multiplicity
 _atom_site_fract_x
 _atom_site_fract_y
 _atom_site_fract_z
 _atom_site_occupancy
  Li  Li0  1  0.00413706  -0.00683938  0.06651091  1
  Li  Li1  1  -0.00715432  0.99196478  0.81625717  1
  Li  Li2  1  0.99585788  0.00684100  0.56642881  1
  Li  Li3  1  0.00714906  0.00799730  0.31619518  1
  Br  Br4  1  -0.00188077  0.50615527  0.44137479  1
  Br  Br5  1  0.50413793  -0.00584624  0.19130398  1
  Br  Br6  1  0.00189362  0.49389526  0.94128515  1
  Br  Br7  1  0.49585955  0.00583201  0.69132030  1
