# generated using pymatgen
data_LiBr
_symmetry_space_group_name_H-M   'P 1'
_cell_length_a   3.85818096
_cell_length_b   6.69454650
_cell_length_c   6.44518972
_cell_angle_alpha   90.00000761
_cell_angle_beta   89.91022950
_cell_angle_gamma   89.99999137
_symmetry_Int_Tables_number   1
_chemical_formula_structural   LiBr
_chemical_formula_sum   'Li4 Br4'
_cell_volume   166.47113069
_cell_formula_units_Z   4
loop_
 _symmetry_equiv_pos_site_id
 _symmetry_equiv_pos_as_xyz
  1  'x, y, z'
loop_
 _atom_site_type_symbol
 _atom_site_label
 _atom_site_symmetry_multiplicity
 _atom_site_fract_x
 _atom_site_fract_y
 _atom_site_fract_z
 _atom_site_occupancy
  Li  Li0  1  0.51856250  -0.00110060  0.01975965  1
  Li  Li1  1  0.01856619  0.49889652  0.01976116  1
  Li  Li2  1  0.51856382  0.00110062  0.51975952  1
  Li  Li3  1  0.01856719  0.50110358  0.51976097  1
  Br  Br4  1  0.01871479  0.16555323  0.76964455  1
  Br  Br5  1  0.51871583  0.66555323  0.76964503  1
  Br  Br6  1  0.01871494  0.83444671  0.26964455  1
  Br  Br7  1  0.51871597  0.33444671  0.26964501  1
