# generated using pymatgen
data_KI
_symmetry_space_group_name_H-M   'P 1'
_cell_length_a   5.08954386
_cell_length_b   5.08963831
_cell_length_c   14.33602076
_cell_angle_alpha   89.99999989
_cell_angle_beta   89.99999870
_cell_angle_gamma   89.99408753
_symmetry_Int_Tables_number   1
_chemical_formula_structural   KI
_chemical_formula_sum   'K4 I4'
_cell_volume   371.35938308
_cell_formula_units_Z   4
loop_
 _symmetry_equiv_pos_site_id
 _symmetry_equiv_pos_as_xyz
  1  'x, y, z'
loop_
 _atom_site_type_symbol
 _atom_site_label
 _atom_site_symmetry_multiplicity
 _atom_site_fract_x
 _atom_site_fract_y
 _atom_site_fract_z
 _atom_site_occupancy
  K  K0  1  -0.00023335  0.50277369  0.72291222  1
  K  K1  1  0.50256723  0.00015237  0.47279443  1
  K  K2  1  0.00023324  0.49722636  0.22291223  1
  K  K3  1  0.49743287  -0.00015241  -0.02720554  1
  I  I4  1  0.00179299  0.50071053  0.47300900  1
  I  I5  1  0.50078951  -0.00188858  0.22297414  1
  I  I6  1  -0.00179290  0.49928943  0.97300906  1
  I  I7  1  0.49921040  0.00188862  0.72297413  1
