# generated using pymatgen
data_LiBr
_symmetry_space_group_name_H-M   'P 1'
_cell_length_a   7.99498747
_cell_length_b   3.57721569
_cell_length_c   6.62028987
_cell_angle_alpha   90.00013023
_cell_angle_beta   90.00000338
_cell_angle_gamma   90.00013238
_symmetry_Int_Tables_number   1
_chemical_formula_structural   LiBr
_chemical_formula_sum   'Li4 Br4'
_cell_volume   189.33893086
_cell_formula_units_Z   4
loop_
 _symmetry_equiv_pos_site_id
 _symmetry_equiv_pos_as_xyz
  1  'x, y, z'
loop_
 _atom_site_type_symbol
 _atom_site_label
 _atom_site_symmetry_multiplicity
 _atom_site_fract_x
 _atom_site_fract_y
 _atom_site_fract_z
 _atom_site_occupancy
  Li  Li0  1  0.56635574  0.50087236  0.27844788  1
  Li  Li1  1  0.06635566  0.49912858  0.27844765  1
  Li  Li2  1  0.43364428  0.49912587  0.77844713  1
  Li  Li3  1  0.93364432  0.50087053  0.77844804  1
  Br  Br4  1  0.38695199  0.00675997  0.07136044  1
  Br  Br5  1  0.88695202  0.99324103  0.07136009  1
  Br  Br6  1  0.61304797  0.99324085  0.57136028  1
  Br  Br7  1  0.11304802  0.00676082  0.57136016  1
