# generated using pymatgen
data_LiI
_symmetry_space_group_name_H-M   'P 1'
_cell_length_a   13.50633898
_cell_length_b   13.50633453
_cell_length_c   13.50504953
_cell_angle_alpha   89.99716864
_cell_angle_beta   89.98629803
_cell_angle_gamma   89.99941337
_symmetry_Int_Tables_number   1
_chemical_formula_structural   LiI
_chemical_formula_sum   'Li24 I24'
_cell_volume   2463.60635723
_cell_formula_units_Z   24
loop_
 _symmetry_equiv_pos_site_id
 _symmetry_equiv_pos_as_xyz
  1  'x, y, z'
loop_
 _atom_site_type_symbol
 _atom_site_label
 _atom_site_symmetry_multiplicity
 _atom_site_fract_x
 _atom_site_fract_y
 _atom_site_fract_z
 _atom_site_occupancy
  Li  Li0  1  0.24464485  0.83823535  0.92417873  1
  Li  Li1  1  0.74465656  0.66181799  0.07574873  1
  Li  Li2  1  0.42416564  0.24462017  0.66181611  1
  Li  Li3  1  0.42409432  0.25539038  0.16181089  1
  Li  Li4  1  0.33826436  0.57577037  0.75538819  1
  Li  Li5  1  0.92422951  0.24462266  0.83821786  1
  Li  Li6  1  0.07581490  0.74461282  0.66178911  1
  Li  Li7  1  0.57585764  0.75536212  0.33819873  1
  Li  Li8  1  0.16178729  0.42425738  0.25540316  1
  Li  Li9  1  0.83819532  0.92417708  0.24462896  1
  Li  Li10  1  0.66175246  0.07584159  0.74463285  1
  Li  Li11  1  0.75538383  0.33823172  0.57582570  1
  Li  Li12  1  0.25534358  0.16181560  0.42422372  1
  Li  Li13  1  0.07576262  0.75540274  0.16179079  1
  Li  Li14  1  0.92417683  0.25538606  0.33821534  1
  Li  Li15  1  0.57588842  0.74460051  0.83819995  1
  Li  Li16  1  0.66175115  0.42422563  0.24461328  1
  Li  Li17  1  0.83822264  0.57574463  0.74460245  1
  Li  Li18  1  0.16182058  0.07581195  0.75538234  1
  Li  Li19  1  0.33822515  0.92418314  0.25535569  1
  Li  Li20  1  0.24462253  0.66175955  0.42416579  1
  Li  Li21  1  0.74465874  0.83818312  0.57576363  1
  Li  Li22  1  0.75534553  0.16177482  0.07583075  1
  Li  Li23  1  0.25535060  0.33816981  0.92425673  1
  I  I24  1  0.11086665  0.20506275  0.89779363  1
  I  I25  1  0.61093878  0.29498155  0.10209180  1
  I  I26  1  0.39786002  0.11096326  0.29496060  1
  I  I27  1  0.39777830  0.38897326  0.79496772  1
  I  I28  1  0.70517882  0.60215402  -0.11087904  1
  I  I29  1  0.89789172  0.11094170  0.20508618  1
  I  I30  1  0.10216884  0.61097507  0.29488360  1
  I  I31  1  0.60213350  -0.11098160  0.70501924  1
  I  I32  1  0.79490377  0.39787911  0.38909199  1
  I  I33  1  0.20508216  0.89785366  0.11095872  1
  I  I34  1  0.29487975  0.10216231  0.61093457  1
  I  I35  1  -0.11097913  0.70507818  0.60216228  1
  I  I36  1  0.38914290  0.79500368  0.39787126  1
  I  I37  1  0.10212497  -0.11095701  0.79490906  1
  I  I38  1  0.89781650  0.38902308  0.70509695  1
  I  I39  1  0.60220584  0.61102130  0.20501186  1
  I  I40  1  0.29482359  0.39783493  0.11088411  1
  I  I41  1  0.20508814  0.60211069  0.61092850  1
  I  I42  1  0.79494428  0.10211397  -0.11096758  1
  I  I43  1  0.70512912  0.89786521  0.38906985  1
  I  I44  1  0.11098594  0.29493060  0.39784860  1
  I  I45  1  0.61084954  0.20504329  0.60212138  1
  I  I46  1  -0.11087144  0.79493406  0.10220773  1
  I  I47  1  0.38904238  0.70503573  0.89790750  1
