# generated using pymatgen
data_LiBr
_symmetry_space_group_name_H-M   'P 1'
_cell_length_a   10.06443265
_cell_length_b   4.66565675
_cell_length_c   4.45047196
_cell_angle_alpha   90.00000307
_cell_angle_beta   89.99971228
_cell_angle_gamma   89.99995611
_symmetry_Int_Tables_number   1
_chemical_formula_structural   LiBr
_chemical_formula_sum   'Li4 Br4'
_cell_volume   208.98164935
_cell_formula_units_Z   4
loop_
 _symmetry_equiv_pos_site_id
 _symmetry_equiv_pos_as_xyz
  1  'x, y, z'
loop_
 _atom_site_type_symbol
 _atom_site_label
 _atom_site_symmetry_multiplicity
 _atom_site_fract_x
 _atom_site_fract_y
 _atom_site_fract_z
 _atom_site_occupancy
  Li  Li0  1  0.75957781  0.25622824  0.05346818  1
  Li  Li1  1  0.25957730  0.24377109  0.05346745  1
  Li  Li2  1  0.24042278  0.74377159  0.55346771  1
  Li  Li3  1  0.74042207  0.75622906  0.55346851  1
  Br  Br4  1  0.86471929  0.75504759  0.05355029  1
  Br  Br5  1  0.36471924  0.74495280  0.05354927  1
  Br  Br6  1  0.13528103  0.24495227  0.55354052  1
  Br  Br7  1  0.63528048  0.25504736  0.55354147  1
