# generated using pymatgen
data_LiBr
_symmetry_space_group_name_H-M   'P 1'
_cell_length_a   7.79431069
_cell_length_b   7.79431746
_cell_length_c   10.99419999
_cell_angle_alpha   90.00006256
_cell_angle_beta   90.00008275
_cell_angle_gamma   90.00000149
_symmetry_Int_Tables_number   1
_chemical_formula_structural   LiBr
_chemical_formula_sum   'Li16 Br16'
_cell_volume   667.91229260
_cell_formula_units_Z   16
loop_
 _symmetry_equiv_pos_site_id
 _symmetry_equiv_pos_as_xyz
  1  'x, y, z'
loop_
 _atom_site_type_symbol
 _atom_site_label
 _atom_site_symmetry_multiplicity
 _atom_site_fract_x
 _atom_site_fract_y
 _atom_site_fract_z
 _atom_site_occupancy
  Li  Li0  1  -0.00055595  0.25123260  0.51713961  1
  Li  Li1  1  0.75123062  -0.00055761  0.76714072  1
  Li  Li2  1  0.00055812  0.25123214  0.01714084  1
  Li  Li3  1  0.00055853  0.74876677  0.51713950  1
  Li  Li4  1  0.24876876  0.00055694  0.76714040  1
  Li  Li5  1  0.74876718  0.49944231  0.76714013  1
  Li  Li6  1  0.25123343  0.50055610  0.76713978  1
  Li  Li7  1  0.24876536  -0.00055585  0.26714008  1
  Li  Li8  1  0.75123266  0.00055842  0.26713988  1
  Li  Li9  1  0.50055637  0.24876824  0.01713905  1
  Li  Li10  1  0.74876874  0.50055637  0.26714066  1
  Li  Li11  1  0.49944219  0.75123329  0.01713949  1
  Li  Li12  1  0.25123005  0.49944192  0.26714062  1
  Li  Li13  1  0.50055713  0.75123031  0.51713978  1
  Li  Li14  1  0.49944358  0.24876826  0.51714089  1
  Li  Li15  1  -0.00055603  0.74877001  0.01714054  1
  Br  Br16  1  -0.00058397  0.74995565  0.26709244  1
  Br  Br17  1  0.24995561  -0.00058358  0.51709103  1
  Br  Br18  1  0.00058539  0.74995414  0.76709201  1
  Br  Br19  1  0.00058341  0.25004353  0.26709113  1
  Br  Br20  1  0.75004546  0.00058423  0.51709188  1
  Br  Br21  1  0.25004645  0.49941476  0.51709190  1
  Br  Br22  1  0.74995585  0.50058251  0.51709183  1
  Br  Br23  1  0.75004465  -0.00058163  0.01709209  1
  Br  Br24  1  0.24995459  0.00058566  0.01709160  1
  Br  Br25  1  0.50058203  0.75004267  0.76709188  1
  Br  Br26  1  0.25004423  0.50058362  0.01709083  1
  Br  Br27  1  0.49941639  0.24995599  0.76709235  1
  Br  Br28  1  0.74995602  0.49941584  0.01709149  1
  Br  Br29  1  0.50058339  0.24995580  0.26709248  1
  Br  Br30  1  0.49941451  0.75004497  0.26709244  1
  Br  Br31  1  -0.00058477  0.25004560  0.76709252  1
