# generated using pymatgen
data_KI
_symmetry_space_group_name_H-M   'P 1'
_cell_length_a   13.95533660
_cell_length_b   4.64024591
_cell_length_c   5.47832704
_cell_angle_alpha   90.00011655
_cell_angle_beta   90.14735958
_cell_angle_gamma   89.99963826
_symmetry_Int_Tables_number   1
_chemical_formula_structural   KI
_chemical_formula_sum   'K4 I4'
_cell_volume   354.75443311
_cell_formula_units_Z   4
loop_
 _symmetry_equiv_pos_site_id
 _symmetry_equiv_pos_as_xyz
  1  'x, y, z'
loop_
 _atom_site_type_symbol
 _atom_site_label
 _atom_site_symmetry_multiplicity
 _atom_site_fract_x
 _atom_site_fract_y
 _atom_site_fract_z
 _atom_site_occupancy
  K  K0  1  0.37798979  0.71916987  0.24747500  1
  K  K1  1  0.87798982  0.21916980  0.24747496  1
  K  K2  1  0.62201020  0.71917129  0.75252520  1
  K  K3  1  0.12201019  0.21917126  0.75252499  1
  I  I4  1  0.62280426  0.21922445  0.25211549  1
  I  I5  1  0.12280424  0.71922442  0.25211528  1
  I  I6  1  0.37719575  0.21922297  0.74788457  1
  I  I7  1  0.87719577  0.71922291  0.74788451  1
