# generated using pymatgen
data_LiI
_symmetry_space_group_name_H-M   'P 1'
_cell_length_a   12.31915976
_cell_length_b   12.31917461
_cell_length_c   12.31916552
_cell_angle_alpha   90.00007517
_cell_angle_beta   89.99998508
_cell_angle_gamma   90.00002187
_symmetry_Int_Tables_number   1
_chemical_formula_structural   LiI
_chemical_formula_sum   'Li24 I24'
_cell_volume   1869.57972187
_cell_formula_units_Z   24
loop_
 _symmetry_equiv_pos_site_id
 _symmetry_equiv_pos_as_xyz
  1  'x, y, z'
loop_
 _atom_site_type_symbol
 _atom_site_label
 _atom_site_symmetry_multiplicity
 _atom_site_fract_x
 _atom_site_fract_y
 _atom_site_fract_z
 _atom_site_occupancy
  Li  Li0  1  0.58778075  0.62444034  0.33804487  1
  Li  Li1  1  0.16195493  0.41221904  0.12443869  1
  Li  Li2  1  0.33804476  0.41221880  0.87556055  1
  Li  Li3  1  0.41222032  0.87556093  0.33804483  1
  Li  Li4  1  0.16195684  0.58777980  0.37555993  1
  Li  Li5  1  0.08778098  0.87555805  0.66195629  1
  Li  Li6  1  0.91221849  0.62444054  0.66195623  1
  Li  Li7  1  0.58778003  0.37556084  0.16195552  1
  Li  Li8  1  0.41221949  0.12443890  0.16195528  1
  Li  Li9  1  0.91221967  0.37556014  0.83804310  1
  Li  Li10  1  0.66195505  0.08778084  0.87556099  1
  Li  Li11  1  0.08777971  0.12443988  0.83804233  1
  Li  Li12  1  0.66195622  0.91222047  0.62443993  1
  Li  Li13  1  0.83804528  0.91221905  0.37555981  1
  Li  Li14  1  0.83804473  0.08778069  0.12443918  1
  Li  Li15  1  0.33804376  0.58778102  0.62444189  1
  Li  Li16  1  0.37555980  0.16195586  0.58778006  1
  Li  Li17  1  0.87555974  0.66195621  0.08778013  1
  Li  Li18  1  0.87556027  0.33804372  0.41221986  1
  Li  Li19  1  0.37556086  0.83804405  0.91222020  1
  Li  Li20  1  0.12443996  0.83804321  0.08777981  1
  Li  Li21  1  0.62443881  0.33804415  0.58777929  1
  Li  Li22  1  0.62443989  0.66195630  0.91222018  1
  Li  Li23  1  0.12444048  0.16195583  0.41221955  1
  I  I24  1  0.84771791  0.40197459  0.62495923  1
  I  I25  1  -0.12496017  0.15228148  0.90197361  1
  I  I26  1  0.62495984  0.15228116  0.09802620  1
  I  I27  1  0.15228117  0.09802393  0.62495877  1
  I  I28  1  -0.12495938  0.84771971  0.59802652  1
  I  I29  1  0.34771998  0.09802684  0.37504023  1
  I  I30  1  0.65228098  0.40197447  0.37503961  1
  I  I31  1  0.84771887  0.59802566  -0.12495935  1
  I  I32  1  0.15228176  0.90197479  -0.12495992  1
  I  I33  1  0.65228010  0.59802654  0.12496016  1
  I  I34  1  0.37503988  0.34771838  0.09802589  1
  I  I35  1  0.34771926  0.90197320  0.12496071  1
  I  I36  1  0.37504079  0.65228225  0.40197657  1
  I  I37  1  0.12495889  0.65227917  0.59802590  1
  I  I38  1  0.12495971  0.34771855  0.90197281  1
  I  I39  1  0.62496067  0.84772003  0.40197385  1
  I  I40  1  0.59802576  -0.12495967  0.84771929  1
  I  I41  1  0.09802585  0.37503999  0.34771858  1
  I  I42  1  0.09802558  0.62495916  0.15228077  1
  I  I43  1  0.59802497  0.12496022  0.65228152  1
  I  I44  1  0.90197464  0.12495958  0.34771914  1
  I  I45  1  0.40197397  0.62495957  0.84772086  1
  I  I46  1  0.40197340  0.37504102  0.65228065  1
  I  I47  1  0.90197476  -0.12495930  0.15227987  1
