# generated using pymatgen
data_KI
_symmetry_space_group_name_H-M   'P 1'
_cell_length_a   5.09038747
_cell_length_b   5.09038726
_cell_length_c   14.32452477
_cell_angle_alpha   90.00000896
_cell_angle_beta   90.00000438
_cell_angle_gamma   90.00000546
_symmetry_Int_Tables_number   1
_chemical_formula_structural   KI
_chemical_formula_sum   'K4 I4'
_cell_volume   371.17770983
_cell_formula_units_Z   4
loop_
 _symmetry_equiv_pos_site_id
 _symmetry_equiv_pos_as_xyz
  1  'x, y, z'
loop_
 _atom_site_type_symbol
 _atom_site_label
 _atom_site_symmetry_multiplicity
 _atom_site_fract_x
 _atom_site_fract_y
 _atom_site_fract_z
 _atom_site_occupancy
  K  K0  1  0.50537537  0.00520616  0.23393658  1
  K  K1  1  0.00520599  0.49462452  0.98393656  1
  K  K2  1  0.49462466  -0.00520599  0.73393656  1
  K  K3  1  -0.00520601  0.50537532  0.48393660  1
  I  I4  1  0.50465006  -0.00479261  -0.01610166  1
  I  I5  1  -0.00479247  0.49534993  0.73389840  1
  I  I6  1  0.49534991  0.00479246  0.48389834  1
  I  I7  1  0.00479248  0.50465020  0.23389831  1
