# generated using pymatgen
data_NaI
_symmetry_space_group_name_H-M   'P 1'
_cell_length_a   7.79166793
_cell_length_b   4.50329431
_cell_length_c   8.23846105
_cell_angle_alpha   90.00510169
_cell_angle_beta   89.98777835
_cell_angle_gamma   89.99997844
_symmetry_Int_Tables_number   1
_chemical_formula_structural   NaI
_chemical_formula_sum   'Na4 I4'
_cell_volume   289.07254577
_cell_formula_units_Z   4
loop_
 _symmetry_equiv_pos_site_id
 _symmetry_equiv_pos_as_xyz
  1  'x, y, z'
loop_
 _atom_site_type_symbol
 _atom_site_label
 _atom_site_symmetry_multiplicity
 _atom_site_fract_x
 _atom_site_fract_y
 _atom_site_fract_z
 _atom_site_occupancy
  Na  Na0  1  0.84285428  0.50042584  0.66420817  1
  Na  Na1  1  0.34284388  -0.00039043  0.66422607  1
  Na  Na2  1  0.15720064  0.49961260  0.16424771  1
  Na  Na3  1  0.65719016  0.00042200  0.16422863  1
  I  I4  1  0.02287863  0.00146858  0.41867207  1
  I  I5  1  0.52286991  0.49849611  0.41866840  1
  I  I6  1  0.97708498  -0.00152456  0.91866269  1
  I  I7  1  0.47707753  0.50148985  0.91866558  1
