# generated using pymatgen
data_LiBr
_symmetry_space_group_name_H-M   'P 1'
_cell_length_a   7.33096938
_cell_length_b   4.19190803
_cell_length_c   6.62535702
_cell_angle_alpha   89.99883433
_cell_angle_beta   90.00932148
_cell_angle_gamma   89.99928497
_symmetry_Int_Tables_number   1
_chemical_formula_structural   LiBr
_chemical_formula_sum   'Li4 Br4'
_cell_volume   203.60218360
_cell_formula_units_Z   4
loop_
 _symmetry_equiv_pos_site_id
 _symmetry_equiv_pos_as_xyz
  1  'x, y, z'
loop_
 _atom_site_type_symbol
 _atom_site_label
 _atom_site_symmetry_multiplicity
 _atom_site_fract_x
 _atom_site_fract_y
 _atom_site_fract_z
 _atom_site_occupancy
  Li  Li0  1  0.58246166  0.25071228  0.05807914  1
  Li  Li1  1  0.08248353  0.74927229  0.05808919  1
  Li  Li2  1  0.41755046  0.74940959  0.55803359  1
  Li  Li3  1  0.91754106  0.25056636  0.55802765  1
  Br  Br4  1  0.58563583  0.24983403  0.67345166  1
  Br  Br5  1  0.08562721  0.75017023  0.67346137  1
  Br  Br6  1  0.41434176  0.75003223  0.17363038  1
  Br  Br7  1  -0.08564151  0.25000300  0.17364677  1
