# generated using pymatgen
data_NaBr
_symmetry_space_group_name_H-M   'P 1'
_cell_length_a   8.50997285
_cell_length_b   6.03928184
_cell_length_c   4.27412264
_cell_angle_alpha   89.99999928
_cell_angle_beta   90.00011603
_cell_angle_gamma   89.99999977
_symmetry_Int_Tables_number   1
_chemical_formula_structural   NaBr
_chemical_formula_sum   'Na4 Br4'
_cell_volume   219.66479115
_cell_formula_units_Z   4
loop_
 _symmetry_equiv_pos_site_id
 _symmetry_equiv_pos_as_xyz
  1  'x, y, z'
loop_
 _atom_site_type_symbol
 _atom_site_label
 _atom_site_symmetry_multiplicity
 _atom_site_fract_x
 _atom_site_fract_y
 _atom_site_fract_z
 _atom_site_occupancy
  Na  Na0  1  0.12332516  0.25002848  0.00029513  1
  Na  Na1  1  0.87667486  0.75002849  0.49970246  1
  Na  Na2  1  0.37667470  0.74997159  0.50018820  1
  Na  Na3  1  0.62332529  0.24997157  -0.00018579  1
  Br  Br4  1  0.12577154  0.75001005  -0.00049372  1
  Br  Br5  1  0.87422847  0.25001006  0.50049487  1
  Br  Br6  1  0.37422870  0.24998989  0.49955070  1
  Br  Br7  1  0.62577127  0.74998987  0.00044816  1
