# generated using pymatgen
data_LiBr
_symmetry_space_group_name_H-M   'P 1'
_cell_length_a   3.89362932
_cell_length_b   3.89362668
_cell_length_c   11.00945245
_cell_angle_alpha   90.00001475
_cell_angle_beta   89.99992152
_cell_angle_gamma   89.99996356
_symmetry_Int_Tables_number   1
_chemical_formula_structural   LiBr
_chemical_formula_sum   'Li4 Br4'
_cell_volume   166.90703155
_cell_formula_units_Z   4
loop_
 _symmetry_equiv_pos_site_id
 _symmetry_equiv_pos_as_xyz
  1  'x, y, z'
loop_
 _atom_site_type_symbol
 _atom_site_label
 _atom_site_symmetry_multiplicity
 _atom_site_fract_x
 _atom_site_fract_y
 _atom_site_fract_z
 _atom_site_occupancy
  Li  Li0  1  0.00107803  0.50313615  0.94559488  1
  Li  Li1  1  0.50313969  -0.00108402  0.19559513  1
  Li  Li2  1  -0.00109230  0.49686892  0.44559407  1
  Li  Li3  1  0.49687633  0.00108293  0.69559519  1
  Br  Br4  1  0.50086686  -0.00166468  0.44483695  1
  Br  Br5  1  -0.00166288  0.49912919  0.69483713  1
  Br  Br6  1  0.49912884  0.00166323  0.94483792  1
  Br  Br7  1  0.00166543  0.50086828  0.19483768  1
