# generated using pymatgen
data_LiI
_symmetry_space_group_name_H-M   'P 1'
_cell_length_a   12.06217896
_cell_length_b   5.95490476
_cell_length_c   6.04028768
_cell_angle_alpha   89.99982623
_cell_angle_beta   89.99999162
_cell_angle_gamma   90.00002131
_symmetry_Int_Tables_number   1
_chemical_formula_structural   LiI
_chemical_formula_sum   'Li8 I8'
_cell_volume   433.86859072
_cell_formula_units_Z   8
loop_
 _symmetry_equiv_pos_site_id
 _symmetry_equiv_pos_as_xyz
  1  'x, y, z'
loop_
 _atom_site_type_symbol
 _atom_site_label
 _atom_site_symmetry_multiplicity
 _atom_site_fract_x
 _atom_site_fract_y
 _atom_site_fract_z
 _atom_site_occupancy
  Li  Li0  1  0.87495509  0.49708780  0.75418205  1
  Li  Li1  1  0.87495894  0.00291071  0.25414259  1
  Li  Li2  1  0.37495527  0.00290250  0.24580405  1
  Li  Li3  1  0.62504176  0.50291142  0.25415175  1
  Li  Li4  1  0.12504171  -0.00290707  0.74587355  1
  Li  Li5  1  0.62504573  -0.00289571  0.75417898  1
  Li  Li6  1  0.37495675  0.49709285  0.74586334  1
  Li  Li7  1  0.12504518  0.50290139  0.24580788  1
  I  I8  1  0.12501067  0.49899068  0.74949091  1
  I  I9  1  0.12501093  0.00100588  0.24949769  1
  I  I10  1  0.62501115  0.00100960  0.25050684  1
  I  I11  1  0.37498889  0.50100555  0.24949730  1
  I  I12  1  0.87498920  -0.00100914  0.75050193  1
  I  I13  1  0.37498878  -0.00100953  0.74949191  1
  I  I14  1  0.62501075  0.49899453  0.75050451  1
  I  I15  1  0.87498920  0.50100853  0.25050472  1
