# generated using pymatgen
data_LiBr
_symmetry_space_group_name_H-M   'P 1'
_cell_length_a   7.79815955
_cell_length_b   7.79816111
_cell_length_c   10.96218915
_cell_angle_alpha   90.00001877
_cell_angle_beta   89.99993107
_cell_angle_gamma   89.99987198
_symmetry_Int_Tables_number   1
_chemical_formula_structural   LiBr
_chemical_formula_sum   'Li16 Br16'
_cell_volume   666.62502256
_cell_formula_units_Z   16
loop_
 _symmetry_equiv_pos_site_id
 _symmetry_equiv_pos_as_xyz
  1  'x, y, z'
loop_
 _atom_site_type_symbol
 _atom_site_label
 _atom_site_symmetry_multiplicity
 _atom_site_fract_x
 _atom_site_fract_y
 _atom_site_fract_z
 _atom_site_occupancy
  Li  Li0  1  0.24836908  0.00095770  0.71064618  1
  Li  Li1  1  0.50095567  0.24837066  0.96064554  1
  Li  Li2  1  0.75163164  0.00095330  0.21064463  1
  Li  Li3  1  0.75162945  -0.00096141  0.71064721  1
  Li  Li4  1  0.49904336  0.75163239  0.96064629  1
  Li  Li5  1  -0.00095740  0.74837241  0.96064747  1
  Li  Li6  1  0.00095518  0.25163127  0.96064516  1
  Li  Li7  1  0.49904485  0.24836981  0.46064627  1
  Li  Li8  1  0.50095481  0.75163147  0.46064559  1
  Li  Li9  1  0.25162464  0.49903880  0.21064613  1
  Li  Li10  1  -0.00096049  0.25162741  0.46064729  1
  Li  Li11  1  0.74837130  0.50095600  0.21064437  1
  Li  Li12  1  0.00095851  0.74837102  0.46064589  1
  Li  Li13  1  0.25162936  0.50095694  0.71064720  1
  Li  Li14  1  0.74837078  0.49904177  0.71064745  1
  Li  Li15  1  0.24837234  -0.00095286  0.21064444  1
  Br  Br16  1  0.24972104  -0.00089757  0.46012533  1
  Br  Br17  1  0.49910120  0.24972095  0.71012462  1
  Br  Br18  1  0.75027966  -0.00089930  0.96012569  1
  Br  Br19  1  0.75027887  0.00089873  0.46012480  1
  Br  Br20  1  0.50089946  0.75027902  0.71012535  1
  Br  Br21  1  0.00090015  0.74972239  0.71012676  1
  Br  Br22  1  -0.00090102  0.25027810  0.71012593  1
  Br  Br23  1  0.50089913  0.24972168  0.21012559  1
  Br  Br24  1  0.49910181  0.75027805  0.21012512  1
  Br  Br25  1  0.25027854  0.50089919  0.96012475  1
  Br  Br26  1  0.00089758  0.25027758  0.21012416  1
  Br  Br27  1  0.74972212  0.49910128  0.96012550  1
  Br  Br28  1  -0.00089582  0.74972121  0.21012365  1
  Br  Br29  1  0.25027886  0.49910144  0.46012569  1
  Br  Br30  1  0.74972321  0.50089964  0.46012481  1
  Br  Br31  1  0.24972213  0.00090094  0.96012470  1
