# generated using pymatgen
data_LiI
_symmetry_space_group_name_H-M   'P 1'
_cell_length_a   8.59413429
_cell_length_b   8.59414320
_cell_length_c   13.92195114
_cell_angle_alpha   89.99989732
_cell_angle_beta   89.99968848
_cell_angle_gamma   89.99946715
_symmetry_Int_Tables_number   1
_chemical_formula_structural   LiI
_chemical_formula_sum   'Li16 I16'
_cell_volume   1028.26446245
_cell_formula_units_Z   16
loop_
 _symmetry_equiv_pos_site_id
 _symmetry_equiv_pos_as_xyz
  1  'x, y, z'
loop_
 _atom_site_type_symbol
 _atom_site_label
 _atom_site_symmetry_multiplicity
 _atom_site_fract_x
 _atom_site_fract_y
 _atom_site_fract_z
 _atom_site_occupancy
  Li  Li0  1  0.80924476  0.19175918  0.88388796  1
  Li  Li1  1  0.69176754  0.80924157  0.13389096  1
  Li  Li2  1  0.19076236  0.19177585  0.38388853  1
  Li  Li3  1  0.19075984  0.80822712  0.88388795  1
  Li  Li4  1  0.30823012  0.19075981  0.13388866  1
  Li  Li5  1  0.80821995  0.30924091  0.13388791  1
  Li  Li6  1  0.19177483  0.69076394  0.13388751  1
  Li  Li7  1  0.30823257  0.80923979  0.63388864  1
  Li  Li8  1  0.69176635  0.19075453  0.63388801  1
  Li  Li9  1  0.69075757  0.30823693  0.38388946  1
  Li  Li10  1  0.80822819  0.69075691  0.63388684  1
  Li  Li11  1  0.30924368  0.69176599  0.38388884  1
  Li  Li12  1  0.19176063  0.30924044  0.63389071  1
  Li  Li13  1  0.69076397  0.69175770  0.88388917  1
  Li  Li14  1  0.30923496  0.30823005  0.88389049  1
  Li  Li15  1  0.80924701  0.80823643  0.38388829  1
  I  I16  1  0.05593547  0.74962818  0.50928106  1
  I  I17  1  0.24962995  0.05593302  0.75928159  1
  I  I18  1  0.94406785  0.74963732  0.00928220  1
  I  I19  1  0.94406512  0.25036710  0.50927902  1
  I  I20  1  0.75036688  0.94406035  0.75928050  1
  I  I21  1  0.25037225  0.55593172  0.75928087  1
  I  I22  1  0.74963662  0.44406029  0.75927895  1
  I  I23  1  0.75036455  0.05593716  0.25928144  1
  I  I24  1  0.24963319  0.94406794  0.25928221  1
  I  I25  1  0.44407069  0.75036737  0.00927985  1
  I  I26  1  0.25037063  0.44407040  0.25927921  1
  I  I27  1  0.55593091  0.24963308  0.00927837  1
  I  I28  1  0.74963295  0.55593500  0.25928161  1
  I  I29  1  0.44406380  0.24963955  0.50928204  1
  I  I30  1  0.55593554  0.75037371  0.50927842  1
  I  I31  1  0.05592926  0.25037066  0.00928363  1
