# generated using pymatgen
data_KI
_symmetry_space_group_name_H-M   'P 1'
_cell_length_a   7.18128594
_cell_length_b   7.20094283
_cell_length_c   10.10595176
_cell_angle_alpha   89.99999836
_cell_angle_beta   134.74247471
_cell_angle_gamma   90.00000439
_symmetry_Int_Tables_number   1
_chemical_formula_structural   KI
_chemical_formula_sum   'K4 I4'
_cell_volume   371.19068226
_cell_formula_units_Z   4
loop_
 _symmetry_equiv_pos_site_id
 _symmetry_equiv_pos_as_xyz
  1  'x, y, z'
loop_
 _atom_site_type_symbol
 _atom_site_label
 _atom_site_symmetry_multiplicity
 _atom_site_fract_x
 _atom_site_fract_y
 _atom_site_fract_z
 _atom_site_occupancy
  K  K0  1  0.25001362  0.74941282  -0.00182816  1
  K  K1  1  0.74998646  0.24941281  0.50182822  1
  K  K2  1  0.74998637  0.25058722  0.00182815  1
  K  K3  1  0.25001352  0.75058715  0.49817178  1
  I  I4  1  0.75009136  0.74941012  0.49894553  1
  I  I5  1  0.24990873  0.24941015  0.00105455  1
  I  I6  1  0.24990864  0.25058986  0.50105447  1
  I  I7  1  0.75009131  0.75058987  -0.00105454  1
