# generated using pymatgen
data_LiI
_symmetry_space_group_name_H-M   'P 1'
_cell_length_a   6.44423052
_cell_length_b   5.93682612
_cell_length_c   6.88560625
_cell_angle_alpha   89.99997745
_cell_angle_beta   90.61563559
_cell_angle_gamma   89.99979205
_symmetry_Int_Tables_number   1
_chemical_formula_structural   LiI
_chemical_formula_sum   'Li4 I4'
_cell_volume   263.41621835
_cell_formula_units_Z   4
loop_
 _symmetry_equiv_pos_site_id
 _symmetry_equiv_pos_as_xyz
  1  'x, y, z'
loop_
 _atom_site_type_symbol
 _atom_site_label
 _atom_site_symmetry_multiplicity
 _atom_site_fract_x
 _atom_site_fract_y
 _atom_site_fract_z
 _atom_site_occupancy
  Li  Li0  1  0.04919844  0.50451787  0.42066629  1
  Li  Li1  1  0.54919906  0.00441107  0.42067322  1
  Li  Li2  1  0.04919681  0.49548196  0.92066780  1
  Li  Li3  1  0.54920021  -0.00441091  0.92067370  1
  I  I4  1  0.29954035  0.24984897  0.67115157  1
  I  I5  1  0.79953936  0.74984761  0.67121278  1
  I  I6  1  0.29953988  0.75015015  0.17115104  1
  I  I7  1  0.79953962  0.25015329  0.17121353  1
