# generated using pymatgen
data_LiBr
_symmetry_space_group_name_H-M   'P 1'
_cell_length_a   11.11778459
_cell_length_b   11.11779697
_cell_length_c   7.62176747
_cell_angle_alpha   90.00002455
_cell_angle_beta   89.99998425
_cell_angle_gamma   90.00000448
_symmetry_Int_Tables_number   1
_chemical_formula_structural   LiBr
_chemical_formula_sum   'Li16 Br16'
_cell_volume   942.09063957
_cell_formula_units_Z   16
loop_
 _symmetry_equiv_pos_site_id
 _symmetry_equiv_pos_as_xyz
  1  'x, y, z'
loop_
 _atom_site_type_symbol
 _atom_site_label
 _atom_site_symmetry_multiplicity
 _atom_site_fract_x
 _atom_site_fract_y
 _atom_site_fract_z
 _atom_site_occupancy
  Li  Li0  1  0.63037796  0.01311954  0.42531900  1
  Li  Li1  1  0.01311953  0.36962161  0.57467786  1
  Li  Li2  1  0.36962204  0.51311941  0.82468186  1
  Li  Li3  1  0.51311950  0.86962160  0.07467790  1
  Li  Li4  1  0.86962212  0.01311938  0.32468162  1
  Li  Li5  1  0.48688054  0.13037810  0.07467670  1
  Li  Li6  1  0.13037802  0.51311951  0.92531903  1
  Li  Li7  1  0.86962211  0.48688090  0.92531863  1
  Li  Li8  1  0.01311951  0.13037801  0.67532295  1
  Li  Li9  1  0.13037767  0.98688084  0.32468056  1
  Li  Li10  1  0.98688056  0.86962136  0.67532269  1
  Li  Li11  1  0.36962204  0.98688089  0.42531830  1
  Li  Li12  1  0.98688059  0.63037812  0.57467691  1
  Li  Li13  1  0.51311959  0.63037813  0.17532283  1
  Li  Li14  1  0.63037787  0.48688084  0.82468061  1
  Li  Li15  1  0.48688060  0.36962139  0.17532263  1
  Br  Br16  1  0.30907678  0.51686723  0.14561905  1
  Br  Br17  1  0.51686762  0.69092290  0.85438230  1
  Br  Br18  1  0.69092330  0.01686739  0.10438149  1
  Br  Br19  1  0.01686742  0.19092289  0.35438236  1
  Br  Br20  1  0.19092332  0.51686710  0.60438152  1
  Br  Br21  1  0.98313278  0.80907724  0.35438199  1
  Br  Br22  1  0.80907679  0.01686744  0.64561898  1
  Br  Br23  1  0.19092319  0.98313288  0.64561851  1
  Br  Br24  1  0.51686708  0.80907733  0.39561808  1
  Br  Br25  1  0.80907684  0.48313247  0.60438093  1
  Br  Br26  1  0.48313238  0.19092281  0.39561758  1
  Br  Br27  1  0.69092322  0.48313259  0.14561858  1
  Br  Br28  1  0.48313291  0.30907723  0.85438181  1
  Br  Br29  1  0.01686701  0.30907728  0.89561826  1
  Br  Br30  1  0.30907676  0.98313271  0.10438080  1
  Br  Br31  1  0.98313235  0.69092287  0.89561767  1
