# generated using pymatgen
data_LiBr
_symmetry_space_group_name_H-M   'P 1'
_cell_length_a   14.63157388
_cell_length_b   14.63154937
_cell_length_c   10.88409663
_cell_angle_alpha   89.99943077
_cell_angle_beta   89.99974284
_cell_angle_gamma   90.00001206
_symmetry_Int_Tables_number   1
_chemical_formula_structural   LiBr
_chemical_formula_sum   'Li32 Br32'
_cell_volume   2330.09565631
_cell_formula_units_Z   32
loop_
 _symmetry_equiv_pos_site_id
 _symmetry_equiv_pos_as_xyz
  1  'x, y, z'
loop_
 _atom_site_type_symbol
 _atom_site_label
 _atom_site_symmetry_multiplicity
 _atom_site_fract_x
 _atom_site_fract_y
 _atom_site_fract_z
 _atom_site_occupancy
  Li  Li0  1  0.07463668  0.81091514  0.05746578  1
  Li  Li1  1  0.18907099  0.92536454  0.44252037  1
  Li  Li2  1  0.68908534  0.57463469  0.44253259  1
  Li  Li3  1  0.42536650  0.68908386  0.55747082  1
  Li  Li4  1  0.31093485  0.57463510  0.94252104  1
  Li  Li5  1  0.68908699  0.07463479  0.80747221  1
  Li  Li6  1  0.31091238  0.92536299  0.80746722  1
  Li  Li7  1  0.18908276  0.57463602  0.30747016  1
  Li  Li8  1  0.81091695  0.92536138  0.94252906  1
  Li  Li9  1  0.81092011  0.42536339  0.30746484  1
  Li  Li10  1  0.92536477  0.81093013  0.55747293  1
  Li  Li11  1  0.42536553  0.31093625  0.05747282  1
  Li  Li12  1  0.92536437  0.18907900  0.05747025  1
  Li  Li13  1  0.81093139  0.07463447  0.44252246  1
  Li  Li14  1  0.31091412  0.42536388  0.44252822  1
  Li  Li15  1  0.57463660  0.31091231  0.55746757  1
  Li  Li16  1  0.68906704  0.42536442  0.94252364  1
  Li  Li17  1  0.18908108  0.07463411  0.94253573  1
  Li  Li18  1  0.07463461  0.68907020  0.69252988  1
  Li  Li19  1  0.57463386  0.81091490  0.69252867  1
  Li  Li20  1  0.57463513  0.18906855  0.19252324  1
  Li  Li21  1  0.07463569  0.31091942  0.19253117  1
  Li  Li22  1  0.42536487  0.81093332  0.19251838  1
  Li  Li23  1  0.92536390  0.68908025  0.19253354  1
  Li  Li24  1  0.92536334  0.31093318  0.69252159  1
  Li  Li25  1  0.42536399  0.18908621  0.69253290  1
  Li  Li26  1  0.68906646  0.92536910  0.30747800  1
  Li  Li27  1  0.18906429  0.42536625  0.80747849  1
  Li  Li28  1  0.81092979  0.57463796  0.80747921  1
  Li  Li29  1  0.31093219  0.07463723  0.30747746  1
  Li  Li30  1  0.57463423  0.68906779  0.05748016  1
  Li  Li31  1  0.07463656  0.18906904  0.55747938  1
  Br  Br32  1  0.32532214  0.90666290  0.31326589  1
  Br  Br33  1  0.09333429  0.67471103  0.18678992  1
  Br  Br34  1  0.59333755  0.82532786  0.18672790  1
  Br  Br35  1  0.17466992  0.59333794  0.81326956  1
  Br  Br36  1  0.40666156  0.82529467  0.68679588  1
  Br  Br37  1  0.59333996  0.32532419  0.06326913  1
  Br  Br38  1  0.40666199  0.67467714  0.06327189  1
  Br  Br39  1  0.09333898  0.82532180  0.56325645  1
  Br  Br40  1  0.90666079  0.67468397  0.68674463  1
  Br  Br41  1  0.90666406  0.17467300  0.56326775  1
  Br  Br42  1  0.67470874  0.90666620  0.81321016  1
  Br  Br43  1  0.17470959  0.40666421  0.31320898  1
  Br  Br44  1  0.67466849  0.09334184  0.31327279  1
  Br  Br45  1  0.90666643  0.32529707  0.18678327  1
  Br  Br46  1  0.40666001  0.17467526  0.18672606  1
  Br  Br47  1  0.82531982  0.40666568  0.81326411  1
  Br  Br48  1  0.59333715  0.17471490  0.68680647  1
  Br  Br49  1  0.09333628  0.32532575  0.68673369  1
  Br  Br50  1  0.32529256  0.59333284  0.43679309  1
  Br  Br51  1  0.82532888  0.90666211  0.43673166  1
  Br  Br52  1  0.82529004  0.09333356  0.93678987  1
  Br  Br53  1  0.32533109  0.40666071  0.93672715  1
  Br  Br54  1  0.17470651  0.90666008  0.93679002  1
  Br  Br55  1  0.67467865  0.59333776  0.93673566  1
  Br  Br56  1  0.67470727  0.40666435  0.43679625  1
  Br  Br57  1  0.17468018  0.09333687  0.43673437  1
  Br  Br58  1  0.59333749  0.67470467  0.56320531  1
  Br  Br59  1  0.09333588  0.17470062  0.06321426  1
  Br  Br60  1  0.90666524  0.82528641  0.06321093  1
  Br  Br61  1  0.40666471  0.32528138  0.56319423  1
  Br  Br62  1  0.82529699  0.59333649  0.31321147  1
  Br  Br63  1  0.32528942  0.09333685  0.81320143  1
