# generated using pymatgen
data_NaCl
_symmetry_space_group_name_H-M   'P 1'
_cell_length_a   4.02740270
_cell_length_b   4.02800618
_cell_length_c   11.37421647
_cell_angle_alpha   89.99990448
_cell_angle_beta   89.99992948
_cell_angle_gamma   89.99699868
_symmetry_Int_Tables_number   1
_chemical_formula_structural   NaCl
_chemical_formula_sum   'Na4 Cl4'
_cell_volume   184.51712281
_cell_formula_units_Z   4
loop_
 _symmetry_equiv_pos_site_id
 _symmetry_equiv_pos_as_xyz
  1  'x, y, z'
loop_
 _atom_site_type_symbol
 _atom_site_label
 _atom_site_symmetry_multiplicity
 _atom_site_fract_x
 _atom_site_fract_y
 _atom_site_fract_z
 _atom_site_occupancy
  Na  Na0  1  0.99889632  0.50035522  0.66646811  1
  Na  Na1  1  0.50027371  -0.00010016  0.41663481  1
  Na  Na2  1  0.00110344  0.49964447  0.16646778  1
  Na  Na3  1  0.49972622  0.00010059  0.91664732  1
  Cl  Cl4  1  -0.00030396  0.50057561  0.91643219  1
  Cl  Cl5  1  0.49953586  0.00029405  0.66658823  1
  Cl  Cl6  1  0.00030380  0.49942448  0.41642364  1
  Cl  Cl7  1  0.50046461  -0.00029426  0.16658657  1
