# generated using pymatgen
data_KI
_symmetry_space_group_name_H-M   'P 1'
_cell_length_a   8.68982099
_cell_length_b   8.62267141
_cell_length_c   4.97592831
_cell_angle_alpha   89.99999926
_cell_angle_beta   90.00000166
_cell_angle_gamma   89.99999544
_symmetry_Int_Tables_number   1
_chemical_formula_structural   KI
_chemical_formula_sum   'K4 I4'
_cell_volume   372.84367644
_cell_formula_units_Z   4
loop_
 _symmetry_equiv_pos_site_id
 _symmetry_equiv_pos_as_xyz
  1  'x, y, z'
loop_
 _atom_site_type_symbol
 _atom_site_label
 _atom_site_symmetry_multiplicity
 _atom_site_fract_x
 _atom_site_fract_y
 _atom_site_fract_z
 _atom_site_occupancy
  K  K0  1  0.49942560  0.24949265  0.40664803  1
  K  K1  1  0.99942561  0.25050733  0.40664826  1
  K  K2  1  0.50057440  0.75050732  0.90664777  1
  K  K3  1  0.00057439  0.74949269  0.90664757  1
  I  I4  1  0.74943547  0.41714544  0.90670867  1
  I  I5  1  0.24943547  0.08285457  0.90670874  1
  I  I6  1  0.25056453  0.58285456  0.40670837  1
  I  I7  1  0.75056453  0.91714544  0.40670832  1
