# generated using pymatgen
data_LiI
_symmetry_space_group_name_H-M   'P 1'
_cell_length_a   11.88050852
_cell_length_b   11.88053056
_cell_length_c   11.61309144
_cell_angle_alpha   90.00628306
_cell_angle_beta   89.99378954
_cell_angle_gamma   120.00470193
_symmetry_Int_Tables_number   1
_chemical_formula_structural   LiI
_chemical_formula_sum   'Li18 I18'
_cell_volume   1419.47831107
_cell_formula_units_Z   18
loop_
 _symmetry_equiv_pos_site_id
 _symmetry_equiv_pos_as_xyz
  1  'x, y, z'
loop_
 _atom_site_type_symbol
 _atom_site_label
 _atom_site_symmetry_multiplicity
 _atom_site_fract_x
 _atom_site_fract_y
 _atom_site_fract_z
 _atom_site_occupancy
  Li  Li0  1  0.08545483  0.41917727  0.95234602  1
  Li  Li1  1  0.08551280  0.66630485  0.45233055  1
  Li  Li2  1  0.91415428  0.58120703  0.11900181  1
  Li  Li3  1  0.66705832  0.08587908  0.11897439  1
  Li  Li4  1  0.24745617  -0.00039279  0.28564233  1
  Li  Li5  1  0.58079006  0.66627789  0.95231135  1
  Li  Li6  1  0.66704026  0.58115861  0.61899621  1
  Li  Li7  1  0.91412946  0.33294262  0.61896790  1
  Li  Li8  1  0.33369600  0.91448634  0.95233979  1
  Li  Li9  1  0.33371712  0.41920845  0.45230989  1
  Li  Li10  1  0.41878472  0.08584783  0.61900305  1
  Li  Li11  1  0.41884369  0.33296616  0.11900613  1
  Li  Li12  1  0.00036948  0.24781917  0.28566192  1
  Li  Li13  1  0.00038661  0.75254183  0.78564069  1
  Li  Li14  1  0.58082217  0.91454445  0.45233891  1
  Li  Li15  1  0.24749877  0.24788347  0.78568404  1
  Li  Li16  1  0.75211480  0.75250219  0.28567198  1
  Li  Li17  1  0.75217809  -0.00036660  0.78566896  1
  I  I18  1  0.55690550  0.66694680  0.45272895  1
  I  I19  1  0.55690483  0.88994721  0.95266976  1
  I  I20  1  0.66638038  0.10977195  0.61939534  1
  I  I21  1  0.44334273  0.33357930  0.61932364  1
  I  I22  1  -0.00025466  0.22332429  0.78598108  1
  I  I23  1  0.33308199  0.88999397  0.45266262  1
  I  I24  1  0.44338491  0.10976392  0.11934077  1
  I  I25  1  0.66641526  0.55664829  0.11932640  1
  I  I26  1  0.11005128  0.44310344  0.45267396  1
  I  I27  1  0.11000598  0.66692112  0.95265024  1
  I  I28  1  0.89024154  0.33362483  0.11939231  1
  I  I29  1  0.89023487  0.55661541  0.61933648  1
  I  I30  1  0.77671853  0.77642931  0.78600455  1
  I  I31  1  0.77668532  0.00025987  0.28599006  1
  I  I32  1  0.33305022  0.44309399  0.95272647  1
  I  I33  1  -0.00027972  0.77643703  0.28605928  1
  I  I34  1  0.22356357  0.00027338  0.78606136  1
  I  I35  1  0.22355979  0.22327808  0.28601008  1
