# generated using pymatgen
data_LiBr
_symmetry_space_group_name_H-M   'P 1'
_cell_length_a   7.80492176
_cell_length_b   7.80492220
_cell_length_c   12.83625068
_cell_angle_alpha   89.99997522
_cell_angle_beta   90.00004690
_cell_angle_gamma   89.99995621
_symmetry_Int_Tables_number   1
_chemical_formula_structural   LiBr
_chemical_formula_sum   'Li16 Br16'
_cell_volume   781.94340608
_cell_formula_units_Z   16
loop_
 _symmetry_equiv_pos_site_id
 _symmetry_equiv_pos_as_xyz
  1  'x, y, z'
loop_
 _atom_site_type_symbol
 _atom_site_label
 _atom_site_symmetry_multiplicity
 _atom_site_fract_x
 _atom_site_fract_y
 _atom_site_fract_z
 _atom_site_occupancy
  Li  Li0  1  0.31208556  0.68775141  0.44871584  1
  Li  Li1  1  0.18775155  0.31208599  0.69871563  1
  Li  Li2  1  0.68791486  0.68775055  0.94871604  1
  Li  Li3  1  0.68791385  0.31224809  0.44871577  1
  Li  Li4  1  0.81224963  0.68791491  0.69871582  1
  Li  Li5  1  0.31224800  0.81208638  0.69871551  1
  Li  Li6  1  0.68775145  0.18791429  0.69871571  1
  Li  Li7  1  0.81224833  0.31208687  0.19871571  1
  Li  Li8  1  0.18775135  0.68791494  0.19871588  1
  Li  Li9  1  0.18791404  0.81224835  0.94871566  1
  Li  Li10  1  0.31224990  0.18791603  0.19871609  1
  Li  Li11  1  0.81208672  0.18775092  0.94871565  1
  Li  Li12  1  0.68775064  0.81208459  0.19871590  1
  Li  Li13  1  0.18791456  0.18775091  0.44871567  1
  Li  Li14  1  0.81208399  0.81224867  0.44871573  1
  Li  Li15  1  0.31208422  0.31224885  0.94871601  1
  Br  Br16  1  0.94039241  0.74978258  0.07390017  1
  Br  Br17  1  0.24978407  0.94039265  0.32389964  1
  Br  Br18  1  0.05960709  0.74978332  0.57389965  1
  Br  Br19  1  0.05960748  0.25021668  0.07390008  1
  Br  Br20  1  0.75021771  0.05960731  0.32389953  1
  Br  Br21  1  0.25021691  0.44039276  0.32390016  1
  Br  Br22  1  0.74978232  0.55960716  0.32389987  1
  Br  Br23  1  0.75021706  0.94039232  0.82390020  1
  Br  Br24  1  0.24978295  0.05960743  0.82390007  1
  Br  Br25  1  0.55960715  0.75021644  0.57390030  1
  Br  Br26  1  0.25021745  0.55960748  0.82389996  1
  Br  Br27  1  0.44039303  0.24978227  0.57390010  1
  Br  Br28  1  0.74978322  0.44039230  0.82390002  1
  Br  Br29  1  0.55960748  0.24978296  0.07389959  1
  Br  Br30  1  0.44039244  0.75021713  0.07389981  1
  Br  Br31  1  0.94039258  0.25021747  0.57389992  1
