# generated using pymatgen
data_KI
_symmetry_space_group_name_H-M   'P 1'
_cell_length_a   7.19353164
_cell_length_b   7.18409627
_cell_length_c   7.18394853
_cell_angle_alpha   89.99901194
_cell_angle_beta   90.09261316
_cell_angle_gamma   90.00027804
_symmetry_Int_Tables_number   1
_chemical_formula_structural   KI
_chemical_formula_sum   'K4 I4'
_cell_volume   371.25896206
_cell_formula_units_Z   4
loop_
 _symmetry_equiv_pos_site_id
 _symmetry_equiv_pos_as_xyz
  1  'x, y, z'
loop_
 _atom_site_type_symbol
 _atom_site_label
 _atom_site_symmetry_multiplicity
 _atom_site_fract_x
 _atom_site_fract_y
 _atom_site_fract_z
 _atom_site_occupancy
  K  K0  1  0.79978861  0.25135131  0.83078209  1
  K  K1  1  0.29978708  0.75135058  0.83078027  1
  K  K2  1  0.79978567  0.74864920  0.33078113  1
  K  K3  1  0.29978743  0.24864854  0.33078237  1
  I  I4  1  0.80106654  0.75111991  0.83074319  1
  I  I5  1  0.30106791  0.25111928  0.83074437  1
  I  I6  1  0.80106681  0.24888089  0.33074285  1
  I  I7  1  0.30106514  0.74888030  0.33074112  1
