# generated using pymatgen
data_NaCl
_symmetry_space_group_name_H-M   'P 1'
_cell_length_a   11.68573038
_cell_length_b   11.68573256
_cell_length_c   7.51099207
_cell_angle_alpha   90.00251754
_cell_angle_beta   89.99827532
_cell_angle_gamma   120.09886877
_symmetry_Int_Tables_number   1
_chemical_formula_structural   NaCl
_chemical_formula_sum   'Na18 Cl18'
_cell_volume   887.37298524
_cell_formula_units_Z   18
loop_
 _symmetry_equiv_pos_site_id
 _symmetry_equiv_pos_as_xyz
  1  'x, y, z'
loop_
 _atom_site_type_symbol
 _atom_site_label
 _atom_site_symmetry_multiplicity
 _atom_site_fract_x
 _atom_site_fract_y
 _atom_site_fract_z
 _atom_site_occupancy
  Na  Na0  1  0.41832003  0.27571797  0.47297811  1
  Na  Na1  1  0.41830686  0.14245217  -0.02739430  1
  Na  Na2  1  0.05761866  0.24835041  0.63964799  1
  Na  Na3  1  0.19052047  0.94217820  0.63954049  1
  Na  Na4  1  0.39115334  0.47614194  0.80621744  1
  Na  Na5  1  0.72448661  0.14280824  0.47288425  1
  Na  Na6  1  0.19087816  0.24835764  0.13927271  1
  Na  Na7  1  0.05782023  0.80947502  0.13955053  1
  Na  Na8  1  0.85754475  0.58169096  0.47260592  1
  Na  Na9  1  0.85718714  0.27551170  -0.02712579  1
  Na  Na10  1  0.75165372  0.94238467  0.13964516  1
  Na  Na11  1  0.75164002  0.80911844  0.63927285  1
  Na  Na12  1  0.52421190  -0.08497519  0.80594002  1
  Na  Na13  1  0.52385361  0.60884509  0.30620746  1
  Na  Na14  1  0.72428545  0.58168385  -0.02701875  1
  Na  Na15  1  0.39095213  -0.08498283  0.30631434  1
  Na  Na16  1  0.08498676  0.60905122  0.80631135  1
  Na  Na17  1  0.08497314  0.47578502  0.30593957  1
  Cl  Cl18  1  0.48753031  0.38894247  0.11650332  1
  Cl  Cl19  1  0.48729298  0.09818630  0.61612246  1
  Cl  Cl20  1  0.94438971  0.17914161  0.28317174  1
  Cl  Cl21  1  0.23445478  0.05561310  0.28292910  1
  Cl  Cl22  1  0.27772111  0.43221089  0.44959022  1
  Cl  Cl23  1  0.61105457  0.09887781  0.11625689  1
  Cl  Cl24  1  0.23514659  0.17937412  0.78278879  1
  Cl  Cl25  1  0.94438788  0.76554408  0.78292329  1
  Cl  Cl26  1  0.90181333  0.51270754  0.11612234  1
  Cl  Cl27  1  0.90112110  0.38894632  0.61626281  1
  Cl  Cl28  1  0.82086375  0.05560896  0.78317042  1
  Cl  Cl29  1  0.82062655  0.76485302  0.28278898  1
  Cl  Cl30  1  0.56848024  0.84604111  0.44945584  1
  Cl  Cl31  1  0.56778803  0.72227987  0.94959634  1
  Cl  Cl32  1  0.61105627  0.51247504  0.61650483  1
  Cl  Cl33  1  0.27772314  0.84580814  0.94983804  1
  Cl  Cl34  1  0.15419712  0.72227559  0.44983655  1
  Cl  Cl35  1  0.15395957  0.43151951  0.94945576  1
