# generated using pymatgen
data_LiBr
_symmetry_space_group_name_H-M   'P 1'
_cell_length_a   11.90999440
_cell_length_b   11.90999179
_cell_length_c   7.30384502
_cell_angle_alpha   90.00164560
_cell_angle_beta   89.99836049
_cell_angle_gamma   120.00621912
_symmetry_Int_Tables_number   1
_chemical_formula_structural   LiBr
_chemical_formula_sum   'Li18 Br18'
_cell_volume   897.17668798
_cell_formula_units_Z   18
loop_
 _symmetry_equiv_pos_site_id
 _symmetry_equiv_pos_as_xyz
  1  'x, y, z'
loop_
 _atom_site_type_symbol
 _atom_site_label
 _atom_site_symmetry_multiplicity
 _atom_site_fract_x
 _atom_site_fract_y
 _atom_site_fract_z
 _atom_site_occupancy
  Li  Li0  1  0.87500598  0.37274954  0.06782413  1
  Li  Li1  1  0.87500449  0.50225533  0.56782823  1
  Li  Li2  1  0.96057914  0.79166730  0.23446114  1
  Li  Li3  1  0.83108872  0.03942264  0.23446658  1
  Li  Li4  1  0.29391135  0.83558972  0.40112731  1
  Li  Li5  1  0.62724661  0.50225493  0.06783033  1
  Li  Li6  1  0.83109068  0.79167113  0.73446379  1
  Li  Li7  1  0.96057781  0.16891204  0.73446698  1
  Li  Li8  1  0.49774606  0.12499643  0.06782641  1
  Li  Li9  1  0.49774450  0.37275350  0.56783075  1
  Li  Li10  1  0.20833306  0.03942060  0.73446234  1
  Li  Li11  1  0.20832859  0.16890888  0.23446358  1
  Li  Li12  1  0.16441250  0.45832679  0.40112444  1
  Li  Li13  1  0.16441026  0.70608837  0.90112821  1
  Li  Li14  1  0.62725005  0.12499279  0.56782520  1
  Li  Li15  1  0.29391358  0.45832290  0.90112448  1
  Li  Li16  1  0.54167709  0.70608644  0.40112394  1
  Li  Li17  1  0.54167356  0.83558765  0.90112427  1
  Br  Br18  1  0.03972506  0.83183387  0.89928708  1
  Br  Br19  1  0.03972452  0.20788738  0.39929134  1
  Br  Br20  1  0.50150378  0.62694129  0.06595840  1
  Br  Br21  1  0.12543578  0.49849521  0.06596139  1
  Br  Br22  1  0.83483806  0.54123026  0.23265046  1
  Br  Br23  1  0.16816613  0.20789170  0.89929172  1
  Br  Br24  1  0.12544157  0.62694204  0.56596093  1
  Br  Br25  1  0.50150439  0.87456380  0.56596145  1
  Br  Br26  1  0.79211300  0.96027569  0.89929085  1
  Br  Br27  1  0.79210804  0.83183389  0.39929089  1
  Br  Br28  1  0.37305853  0.49849626  0.56595860  1
  Br  Br29  1  0.37305813  0.87455873  0.06596063  1
  Br  Br30  1  0.45877375  0.29360904  0.23265072  1
  Br  Br31  1  0.45876987  0.16516197  0.73265049  1
  Br  Br32  1  0.16816566  0.96027475  0.39928762  1
  Br  Br33  1  0.83483825  0.29360935  0.73264567  1
  Br  Br34  1  0.70639060  0.16516137  0.23264592  1
  Br  Br35  1  0.70639086  0.54122643  0.73265036  1
