# generated using pymatgen
data_LiBr
_symmetry_space_group_name_H-M   'P 1'
_cell_length_a   11.59821845
_cell_length_b   11.59821337
_cell_length_c   7.05163002
_cell_angle_alpha   90.00003638
_cell_angle_beta   90.00001866
_cell_angle_gamma   90.00000320
_symmetry_Int_Tables_number   1
_chemical_formula_structural   LiBr
_chemical_formula_sum   'Li16 Br16'
_cell_volume   948.57548424
_cell_formula_units_Z   16
loop_
 _symmetry_equiv_pos_site_id
 _symmetry_equiv_pos_as_xyz
  1  'x, y, z'
loop_
 _atom_site_type_symbol
 _atom_site_label
 _atom_site_symmetry_multiplicity
 _atom_site_fract_x
 _atom_site_fract_y
 _atom_site_fract_z
 _atom_site_occupancy
  Li  Li0  1  0.39044624  0.24409105  -0.08325090  1
  Li  Li1  1  0.25590872  0.89044603  -0.08324871  1
  Li  Li2  1  0.10955406  0.74409140  0.58324875  1
  Li  Li3  1  0.24409163  0.60955449  0.08324800  1
  Li  Li4  1  0.39044576  0.75590841  0.41675157  1
  Li  Li5  1  0.75591013  0.39044596  0.08325111  1
  Li  Li6  1  0.10955368  0.25590933  0.08325124  1
  Li  Li7  1  0.89044613  0.74409143  0.08325024  1
  Li  Li8  1  0.74409004  0.89044606  0.41674950  1
  Li  Li9  1  0.60955369  0.24409153  0.41674894  1
  Li  Li10  1  0.25590958  0.10955369  0.41674909  1
  Li  Li11  1  0.60955405  0.75590818  -0.08324976  1
  Li  Li12  1  0.74408985  0.10955377  -0.08325121  1
  Li  Li13  1  0.75590968  0.60955377  0.58325040  1
  Li  Li14  1  0.89044629  0.25590833  0.58325113  1
  Li  Li15  1  0.24409054  0.39044642  0.58325064  1
  Br  Br16  1  0.59011733  0.24268778  0.05638765  1
  Br  Br17  1  0.25731302  0.09011761  0.05638792  1
  Br  Br18  1  0.90988254  0.74268766  0.44361163  1
  Br  Br19  1  0.24268691  0.40988277  0.94361185  1
  Br  Br20  1  0.59011725  0.75731217  0.55638887  1
  Br  Br21  1  0.75731387  0.59011700  0.94361212  1
  Br  Br22  1  0.90988266  0.25731203  0.94361241  1
  Br  Br23  1  0.09011715  0.74268687  0.94361066  1
  Br  Br24  1  0.74268591  0.09011733  0.55638766  1
  Br  Br25  1  0.40988272  0.24268737  0.55638752  1
  Br  Br26  1  0.25731364  0.90988287  0.55638954  1
  Br  Br27  1  0.40988305  0.75731373  0.05638962  1
  Br  Br28  1  0.74268637  0.90988269  0.05638780  1
  Br  Br29  1  0.75731405  0.40988251  0.44361220  1
  Br  Br30  1  0.09011734  0.25731266  0.44361278  1
  Br  Br31  1  0.24268611  0.59011710  0.44360974  1
