# generated using pymatgen
data_LiBr
_symmetry_space_group_name_H-M   'P 1'
_cell_length_a   4.18108609
_cell_length_b   4.18108972
_cell_length_c   10.09131370
_cell_angle_alpha   89.99920590
_cell_angle_beta   90.00062987
_cell_angle_gamma   120.00111026
_symmetry_Int_Tables_number   1
_chemical_formula_structural   LiBr
_chemical_formula_sum   'Li3 Br3'
_cell_volume   152.77492418
_cell_formula_units_Z   3
loop_
 _symmetry_equiv_pos_site_id
 _symmetry_equiv_pos_as_xyz
  1  'x, y, z'
loop_
 _atom_site_type_symbol
 _atom_site_label
 _atom_site_symmetry_multiplicity
 _atom_site_fract_x
 _atom_site_fract_y
 _atom_site_fract_z
 _atom_site_occupancy
  Li  Li0  1  0.67225010  0.00633857  0.30921491  1
  Li  Li1  1  0.99367512  0.66591301  0.64254436  1
  Li  Li2  1  0.33408012  0.32774911  0.97588251  1
  Br  Br3  1  0.66871669  0.99584223  0.05752103  1
  Br  Br4  1  0.00415726  0.67287793  0.39085642  1
  Br  Br5  1  0.32712073  0.33127914  0.72418208  1
