# generated using pymatgen
data_KCl
_symmetry_space_group_name_H-M   'P 1'
_cell_length_a   7.52283644
_cell_length_b   4.35466332
_cell_length_c   10.94806607
_cell_angle_alpha   90.00000630
_cell_angle_beta   133.33909457
_cell_angle_gamma   89.99996565
_symmetry_Int_Tables_number   1
_chemical_formula_structural   KCl
_chemical_formula_sum   'K4 Cl4'
_cell_volume   260.84947519
_cell_formula_units_Z   4
loop_
 _symmetry_equiv_pos_site_id
 _symmetry_equiv_pos_as_xyz
  1  'x, y, z'
loop_
 _atom_site_type_symbol
 _atom_site_label
 _atom_site_symmetry_multiplicity
 _atom_site_fract_x
 _atom_site_fract_y
 _atom_site_fract_z
 _atom_site_occupancy
  K  K0  1  0.87605034  0.25076667  0.99802898  1
  K  K1  1  0.37605013  0.75076708  0.99802886  1
  K  K2  1  0.87605049  0.74923280  0.49802886  1
  K  K3  1  0.37605075  0.24923298  0.49802904  1
  Cl  Cl4  1  0.79162951  0.74999461  0.74790997  1
  Cl  Cl5  1  0.29162938  0.24999489  0.74790988  1
  Cl  Cl6  1  0.79163016  0.25000549  0.24790947  1
  Cl  Cl7  1  0.29163028  0.75000549  0.24790958  1
