# generated using pymatgen
data_LiBr
_symmetry_space_group_name_H-M   'P 1'
_cell_length_a   7.79629784
_cell_length_b   7.79629582
_cell_length_c   11.01479501
_cell_angle_alpha   90.00001430
_cell_angle_beta   90.00001845
_cell_angle_gamma   90.00000001
_symmetry_Int_Tables_number   1
_chemical_formula_structural   LiBr
_chemical_formula_sum   'Li16 Br16'
_cell_volume   669.50396144
_cell_formula_units_Z   16
loop_
 _symmetry_equiv_pos_site_id
 _symmetry_equiv_pos_as_xyz
  1  'x, y, z'
loop_
 _atom_site_type_symbol
 _atom_site_label
 _atom_site_symmetry_multiplicity
 _atom_site_fract_x
 _atom_site_fract_y
 _atom_site_fract_z
 _atom_site_occupancy
  Li  Li0  1  0.74872498  0.49993593  0.20360961  1
  Li  Li1  1  -0.00006238  0.74872349  0.45360844  1
  Li  Li2  1  0.25127658  0.49993864  0.70360871  1
  Li  Li3  1  0.25127494  0.50006064  0.20360873  1
  Li  Li4  1  0.00006297  0.25127537  0.45360819  1
  Li  Li5  1  0.50006321  0.24872518  0.45360910  1
  Li  Li6  1  0.49993570  0.75127429  0.45360889  1
  Li  Li7  1  0.00005967  0.74872659  0.95360892  1
  Li  Li8  1  -0.00005907  0.25127854  0.95360887  1
  Li  Li9  1  0.75127467  0.00006108  0.70360852  1
  Li  Li10  1  0.50006065  0.75127897  0.95360795  1
  Li  Li11  1  0.24872326  -0.00006203  0.70360964  1
  Li  Li12  1  0.49993876  0.24872577  0.95360851  1
  Li  Li13  1  0.75127783  -0.00006396  0.20360843  1
  Li  Li14  1  0.24872522  0.00006006  0.20360777  1
  Li  Li15  1  0.74872266  0.50005954  0.70360771  1
  Br  Br16  1  0.74990135  0.50004376  0.45360671  1
  Br  Br17  1  0.00004309  0.74990177  0.70360649  1
  Br  Br18  1  0.25009790  0.50004450  0.95360701  1
  Br  Br19  1  0.25009843  0.49995652  0.45360609  1
  Br  Br20  1  -0.00004288  0.25009812  0.70360673  1
  Br  Br21  1  0.49995691  0.24990165  0.70360633  1
  Br  Br22  1  0.50004264  0.75009835  0.70360687  1
  Br  Br23  1  -0.00004316  0.74990087  0.20360643  1
  Br  Br24  1  0.00004475  0.25009765  0.20360635  1
  Br  Br25  1  0.75009788  -0.00004205  0.95360619  1
  Br  Br26  1  0.49995575  0.75009794  0.20360635  1
  Br  Br27  1  0.24990201  0.00004427  0.95360697  1
  Br  Br28  1  0.50004345  0.24990105  0.20360640  1
  Br  Br29  1  0.75009871  0.00004358  0.45360687  1
  Br  Br30  1  0.24990139  -0.00004346  0.45360603  1
  Br  Br31  1  0.74990212  0.49995740  0.95360610  1
