# generated using pymatgen
data_LiBr
_symmetry_space_group_name_H-M   'P 1'
_cell_length_a   8.42260066
_cell_length_b   4.22477970
_cell_length_c   5.72797778
_cell_angle_alpha   90.00009474
_cell_angle_beta   90.00006170
_cell_angle_gamma   89.99992030
_symmetry_Int_Tables_number   1
_chemical_formula_structural   LiBr
_chemical_formula_sum   'Li4 Br4'
_cell_volume   203.82225498
_cell_formula_units_Z   4
loop_
 _symmetry_equiv_pos_site_id
 _symmetry_equiv_pos_as_xyz
  1  'x, y, z'
loop_
 _atom_site_type_symbol
 _atom_site_label
 _atom_site_symmetry_multiplicity
 _atom_site_fract_x
 _atom_site_fract_y
 _atom_site_fract_z
 _atom_site_occupancy
  Li  Li0  1  0.37489890  0.25015755  0.64786925  1
  Li  Li1  1  0.87489824  0.24984461  0.64786984  1
  Li  Li2  1  0.62510130  0.74984148  0.14786108  1
  Li  Li3  1  0.12510131  0.75015614  0.14785884  1
  Br  Br4  1  0.12471171  0.24988624  0.39637182  1
  Br  Br5  1  0.62471140  0.25011153  0.39637251  1
  Br  Br6  1  0.87528886  0.75011168  0.89637202  1
  Br  Br7  1  0.37528828  0.74989077  0.89637241  1
