# generated using pymatgen
data_LiBr
_symmetry_space_group_name_H-M   'P 1'
_cell_length_a   13.24917975
_cell_length_b   15.44844607
_cell_length_c   4.01277282
_cell_angle_alpha   89.99981341
_cell_angle_beta   89.99925725
_cell_angle_gamma   89.98290081
_symmetry_Int_Tables_number   1
_chemical_formula_structural   LiBr
_chemical_formula_sum   'Li16 Br16'
_cell_volume   821.33125035
_cell_formula_units_Z   16
loop_
 _symmetry_equiv_pos_site_id
 _symmetry_equiv_pos_as_xyz
  1  'x, y, z'
loop_
 _atom_site_type_symbol
 _atom_site_label
 _atom_site_symmetry_multiplicity
 _atom_site_fract_x
 _atom_site_fract_y
 _atom_site_fract_z
 _atom_site_occupancy
  Li  Li0  1  0.73449189  0.91358895  0.78430195  1
  Li  Li1  1  0.26550749  0.08640935  0.78429515  1
  Li  Li2  1  0.51540408  0.16363695  0.03379405  1
  Li  Li3  1  0.76550637  0.08641138  0.28429867  1
  Li  Li4  1  0.01540537  0.16363631  0.53379076  1
  Li  Li5  1  -0.01540527  0.33636468  0.03378664  1
  Li  Li6  1  0.23449158  0.91358664  0.28429514  1
  Li  Li7  1  0.01540561  0.66363578  0.03379427  1
  Li  Li8  1  -0.01540714  0.83636482  0.53378834  1
  Li  Li9  1  0.23449256  0.41358710  0.78430014  1
  Li  Li10  1  0.76550812  0.58640905  0.78430652  1
  Li  Li11  1  0.51540564  0.66363716  0.53379937  1
  Li  Li12  1  0.48459493  0.33636564  0.53378735  1
  Li  Li13  1  0.48459591  0.83636732  0.03379475  1
  Li  Li14  1  0.73449217  0.41358654  0.28430497  1
  Li  Li15  1  0.26550748  0.58641132  0.28429337  1
  Br  Br16  1  0.39910839  0.68653873  0.04178528  1
  Br  Br17  1  0.60089333  0.31346420  0.04176242  1
  Br  Br18  1  0.85080780  0.93649856  0.29225246  1
  Br  Br19  1  0.10089288  0.31346475  0.54176013  1
  Br  Br20  1  0.35080829  0.93649683  0.79224642  1
  Br  Br21  1  0.64919216  0.56350038  0.29227287  1
  Br  Br22  1  0.89910777  0.68653574  0.54177983  1
  Br  Br23  1  0.35080913  0.43649813  0.29225139  1
  Br  Br24  1  0.64919045  0.06350175  0.79226519  1
  Br  Br25  1  0.89910772  0.18653644  0.04177609  1
  Br  Br26  1  0.10089161  0.81346439  0.04176300  1
  Br  Br27  1  0.85080879  0.43649662  0.79225659  1
  Br  Br28  1  0.14919215  0.56350115  0.79225999  1
  Br  Br29  1  0.14919176  0.06350095  0.29226113  1
  Br  Br30  1  0.39910715  0.18653725  0.54177908  1
  Br  Br31  1  0.60089383  0.81346513  0.54176853  1
