# generated using pymatgen
data_LiI
_symmetry_space_group_name_H-M   'P 1'
_cell_length_a   4.33191718
_cell_length_b   6.89902308
_cell_length_c   7.27178210
_cell_angle_alpha   89.99930102
_cell_angle_beta   90.00000463
_cell_angle_gamma   89.99926379
_symmetry_Int_Tables_number   1
_chemical_formula_structural   LiI
_chemical_formula_sum   'Li4 I4'
_cell_volume   217.32445499
_cell_formula_units_Z   4
loop_
 _symmetry_equiv_pos_site_id
 _symmetry_equiv_pos_as_xyz
  1  'x, y, z'
loop_
 _atom_site_type_symbol
 _atom_site_label
 _atom_site_symmetry_multiplicity
 _atom_site_fract_x
 _atom_site_fract_y
 _atom_site_fract_z
 _atom_site_occupancy
  Li  Li0  1  -0.00191848  0.74644159  0.24958228  1
  Li  Li1  1  0.00191264  0.24644016  0.25042217  1
  Li  Li2  1  0.50192418  0.25355698  0.74957155  1
  Li  Li3  1  0.49807637  0.75355759  0.75042284  1
  I  I4  1  0.50116805  -0.00048449  0.41770844  1
  I  I5  1  0.49883089  0.49951491  0.08229267  1
  I  I6  1  -0.00116311  0.00048686  0.91770772  1
  I  I7  1  0.00116945  0.50048641  0.58229232  1
