# generated using pymatgen
data_LiBr
_symmetry_space_group_name_H-M   'P 1'
_cell_length_a   10.21486680
_cell_length_b   10.21489083
_cell_length_c   12.67011095
_cell_angle_alpha   90.00931779
_cell_angle_beta   89.99080964
_cell_angle_gamma   120.00891074
_symmetry_Int_Tables_number   1
_chemical_formula_structural   LiBr
_chemical_formula_sum   'Li18 Br18'
_cell_volume   1144.82334528
_cell_formula_units_Z   18
loop_
 _symmetry_equiv_pos_site_id
 _symmetry_equiv_pos_as_xyz
  1  'x, y, z'
loop_
 _atom_site_type_symbol
 _atom_site_label
 _atom_site_symmetry_multiplicity
 _atom_site_fract_x
 _atom_site_fract_y
 _atom_site_fract_z
 _atom_site_occupancy
  Li  Li0  1  0.25056145  0.25068935  0.81783224  1
  Li  Li1  1  0.25057490  -0.00010430  0.31782852  1
  Li  Li2  1  0.08265260  0.41607122  0.98460362  1
  Li  Li3  1  0.33342714  -0.08265830  0.98459258  1
  Li  Li4  1  0.41600210  0.33324913  0.15126101  1
  Li  Li5  1  0.74931941  -0.00013702  0.81781846  1
  Li  Li6  1  0.33339954  0.41605114  0.48459861  1
  Li  Li7  1  0.08265811  0.66657168  0.48459236  1
  Li  Li8  1  0.00010195  0.74941896  0.81782791  1
  Li  Li9  1  0.00013645  0.25068310  0.31781789  1
  Li  Li10  1  0.58392930  -0.08265139  0.48460327  1
  Li  Li11  1  0.58394410  0.66660233  0.98459893  1
  Li  Li12  1  0.66671612  0.08271603  0.15127210  1
  Li  Li13  1  0.66675138  0.58400190  0.65126132  1
  Li  Li14  1  0.74930828  0.74943859  0.31783015  1
  Li  Li15  1  0.41598793  0.08272948  0.65127215  1
  Li  Li16  1  0.91727182  0.58401667  0.15127308  1
  Li  Li17  1  0.91728766  0.33328283  0.65127137  1
  Br  Br18  1  0.41516579  0.33331847  0.65093608  1
  Br  Br19  1  0.41521266  0.08185370  0.15094076  1
  Br  Br20  1  0.00002114  0.25151524  0.81766538  1
  Br  Br21  1  0.25150772  0.00004548  0.81767602  1
  Br  Br22  1  0.33328192  0.41506877  0.98430854  1
  Br  Br23  1  0.66661574  0.08182972  0.65094651  1
  Br  Br24  1  0.25148263  0.25146408  0.31766563  1
  Br  Br25  1  -0.00004982  0.74849010  0.31767719  1
  Br  Br26  1  -0.08185864  0.58478292  0.65094013  1
  Br  Br27  1  -0.08183029  0.33338722  0.15094756  1
  Br  Br28  1  0.74848461  -0.00001983  0.31766362  1
  Br  Br29  1  0.74853646  0.74851553  0.81766691  1
  Br  Br30  1  0.58490439  0.91821229  0.98430018  1
  Br  Br31  1  0.58492945  0.66671783  0.48430810  1
  Br  Br32  1  0.66668332  0.58483542  0.15093464  1
  Br  Br33  1  0.33334990  0.91826163  0.48429390  1
  Br  Br34  1  0.08173934  0.66665186  0.98429316  1
  Br  Br35  1  0.08179342  0.41509821  0.48429921  1
