# generated using pymatgen
data_LiBr
_symmetry_space_group_name_H-M   'P 1'
_cell_length_a   7.76570242
_cell_length_b   5.64066731
_cell_length_c   4.48249472
_cell_angle_alpha   90.00025846
_cell_angle_beta   89.99830908
_cell_angle_gamma   89.99906929
_symmetry_Int_Tables_number   1
_chemical_formula_structural   LiBr
_chemical_formula_sum   'Li4 Br4'
_cell_volume   196.35004988
_cell_formula_units_Z   4
loop_
 _symmetry_equiv_pos_site_id
 _symmetry_equiv_pos_as_xyz
  1  'x, y, z'
loop_
 _atom_site_type_symbol
 _atom_site_label
 _atom_site_symmetry_multiplicity
 _atom_site_fract_x
 _atom_site_fract_y
 _atom_site_fract_z
 _atom_site_occupancy
  Li  Li0  1  0.16730165  0.74897345  0.75298735  1
  Li  Li1  1  0.83269835  0.24893233  0.74701356  1
  Li  Li2  1  0.33269749  0.25101555  0.25297888  1
  Li  Li3  1  0.66730261  0.75105289  0.24701568  1
  Br  Br4  1  0.16606675  0.24994596  0.75312640  1
  Br  Br5  1  0.83393296  0.74994402  -0.25312883  1
  Br  Br6  1  0.33393350  0.75006681  0.25310912  1
  Br  Br7  1  0.66606669  0.25006898  0.24689783  1
