# generated using pymatgen
data_LiBr
_symmetry_space_group_name_H-M   'P 1'
_cell_length_a   16.12969569
_cell_length_b   16.12968723
_cell_length_c   10.26667073
_cell_angle_alpha   90.11805741
_cell_angle_beta   89.88187924
_cell_angle_gamma   120.03029467
_symmetry_Int_Tables_number   1
_chemical_formula_structural   LiBr
_chemical_formula_sum   'Li36 Br36'
_cell_volume   2312.48273203
_cell_formula_units_Z   36
loop_
 _symmetry_equiv_pos_site_id
 _symmetry_equiv_pos_as_xyz
  1  'x, y, z'
loop_
 _atom_site_type_symbol
 _atom_site_label
 _atom_site_symmetry_multiplicity
 _atom_site_fract_x
 _atom_site_fract_y
 _atom_site_fract_z
 _atom_site_occupancy
  Li  Li0  1  0.91696691  0.08310055  0.87461040  1
  Li  Li1  1  0.16716294  0.58348224  0.79311057  1
  Li  Li2  1  0.83281087  0.41670370  0.70687728  1
  Li  Li3  1  0.83283810  0.41651786  0.20688959  1
  Li  Li4  1  0.50014380  0.24998203  0.45892860  1
  Li  Li5  1  0.49981911  0.74996104  0.04107151  1
  Li  Li6  1  0.25003631  0.50018211  0.54107123  1
  Li  Li7  1  0.41670794  0.83281009  0.79312353  1
  Li  Li8  1  0.74996443  0.49981781  0.45892879  1
  Li  Li9  1  0.91667011  0.83356989  0.87389607  1
  Li  Li10  1  0.49985549  0.75001735  0.54107106  1
  Li  Li11  1  0.41628347  0.58387862  0.29242030  1
  Li  Li12  1  0.58371732  0.41612133  0.70758000  1
  Li  Li13  1  0.91673806  0.83352899  0.37388071  1
  Li  Li14  1  0.50018022  0.25003953  0.95892828  1
  Li  Li15  1  0.58329095  0.16718967  0.20687691  1
  Li  Li16  1  0.08332993  0.16643012  0.12610327  1
  Li  Li17  1  0.16718943  0.58329556  0.29312270  1
  Li  Li18  1  0.74966524  0.25033945  0.45819442  1
  Li  Li19  1  0.24997977  0.50014439  0.04107105  1
  Li  Li20  1  0.16647125  0.08326525  0.87388085  1
  Li  Li21  1  0.25033414  0.74966020  0.54180574  1
  Li  Li22  1  0.75002097  0.49985512  0.95892865  1
  Li  Li23  1  0.83352882  0.91673536  0.12611922  1
  Li  Li24  1  0.08303327  0.91690047  0.12538918  1
  Li  Li25  1  0.08326196  0.16647070  0.62611863  1
  Li  Li26  1  0.41611856  0.58371275  0.79242065  1
  Li  Li27  1  0.58347692  0.16716221  0.70688967  1
  Li  Li28  1  0.58388169  0.41628711  0.20757945  1
  Li  Li29  1  0.41652190  0.83283800  0.29311097  1
  Li  Li30  1  0.16643127  0.08333317  0.37389617  1
  Li  Li31  1  0.25034368  0.74966928  0.04180629  1
  Li  Li32  1  0.74965510  0.25033036  0.95819403  1
  Li  Li33  1  0.83356904  0.91666722  0.62610399  1
  Li  Li34  1  0.91689709  0.08303015  0.37461029  1
  Li  Li35  1  0.08310315  0.91697056  0.62538923  1
  Br  Br36  1  0.13725095  0.56846131  0.04325070  1
  Br  Br37  1  0.90190750  0.80391931  0.62401793  1
  Br  Br38  1  0.09790705  0.90207766  0.87503295  1
  Br  Br39  1  0.09809218  0.19608059  0.37598220  1
  Br  Br40  1  0.23524711  0.47052915  0.29115283  1
  Br  Br41  1  0.76440908  0.23556259  0.20791936  1
  Br  Br42  1  0.76443136  0.23558445  0.70791968  1
  Br  Br43  1  0.90207366  0.09790339  0.62496691  1
  Br  Br44  1  0.23556793  0.76441505  0.29208034  1
  Br  Br45  1  0.43118250  0.56884042  0.04230981  1
  Br  Br46  1  0.76475347  0.52947023  0.70884700  1
  Br  Br47  1  0.90186439  0.80392272  0.12401779  1
  Br  Br48  1  0.09813547  0.19607753  0.87598200  1
  Br  Br49  1  0.13726817  0.56853077  0.54324793  1
  Br  Br50  1  0.23558995  0.76443696  0.79208088  1
  Br  Br51  1  0.09792606  0.90209690  0.37503295  1
  Br  Br52  1  0.56881808  0.43115961  0.95769008  1
  Br  Br53  1  0.90209283  0.09792286  0.12496708  1
  Br  Br54  1  0.52947477  0.76480066  0.29113594  1
  Br  Br55  1  0.47052862  0.23525221  0.20884765  1
  Br  Br56  1  0.43147455  0.86273184  0.04324783  1
  Br  Br57  1  0.47052462  0.23519936  0.70886441  1
  Br  Br58  1  0.52947085  0.76474810  0.79115303  1
  Br  Br59  1  0.56852480  0.13726798  0.95675262  1
  Br  Br60  1  0.86275027  0.43153844  0.95674921  1
  Br  Br61  1  0.86273242  0.43146872  0.45675210  1
  Br  Br62  1  0.19607783  0.09813941  0.62401758  1
  Br  Br63  1  0.80391876  0.90190441  0.87598228  1
  Br  Br64  1  0.80392214  0.90186092  0.37598224  1
  Br  Br65  1  0.19608169  0.09809615  0.12401711  1
  Br  Br66  1  0.43115543  0.56881329  0.54230955  1
  Br  Br67  1  0.76480488  0.52947365  0.20886398  1
  Br  Br68  1  0.23519607  0.47052626  0.79113599  1
  Br  Br69  1  0.56884574  0.43118688  0.45769054  1
  Br  Br70  1  0.43154348  0.86274969  0.54325079  1
  Br  Br71  1  0.56845611  0.13725029  0.45674947  1
