# generated using pymatgen
data_LiBr
_symmetry_space_group_name_H-M   'P 1'
_cell_length_a   11.54734331
_cell_length_b   11.54733945
_cell_length_c   6.54286564
_cell_angle_alpha   90.00000678
_cell_angle_beta   90.00000516
_cell_angle_gamma   120.00232650
_symmetry_Int_Tables_number   1
_chemical_formula_structural   LiBr
_chemical_formula_sum   'Li12 Br12'
_cell_volume   755.53130267
_cell_formula_units_Z   12
loop_
 _symmetry_equiv_pos_site_id
 _symmetry_equiv_pos_as_xyz
  1  'x, y, z'
loop_
 _atom_site_type_symbol
 _atom_site_label
 _atom_site_symmetry_multiplicity
 _atom_site_fract_x
 _atom_site_fract_y
 _atom_site_fract_z
 _atom_site_occupancy
  Li  Li0  1  0.11975997  0.65701979  0.51975650  1
  Li  Li1  1  0.46278595  0.11978725  0.51976342  1
  Li  Li2  1  0.53722964  0.65700467  0.01976212  1
  Li  Li3  1  0.88021339  0.53721489  0.01976391  1
  Li  Li4  1  0.11978882  0.46278740  0.01976410  1
  Li  Li5  1  0.65702073  0.11976141  0.01975738  1
  Li  Li6  1  0.46277229  0.34299662  0.01976019  1
  Li  Li7  1  0.34298153  0.88023950  0.01975713  1
  Li  Li8  1  0.34299498  0.46277058  0.51976119  1
  Li  Li9  1  0.88023868  0.34298032  0.51975701  1
  Li  Li10  1  0.53721246  0.88021119  0.51976498  1
  Li  Li11  1  0.65700182  0.53722634  0.51976101  1
  Br  Br12  1  0.12594887  0.44514698  0.63297583  1
  Br  Br13  1  0.68081675  0.12592051  0.63297373  1
  Br  Br14  1  0.31918397  0.44511151  0.13297369  1
  Br  Br15  1  0.87407974  0.31918356  0.13297386  1
  Br  Br16  1  0.12592191  0.68081808  0.13297352  1
  Br  Br17  1  0.44514798  0.12595011  0.13297508  1
  Br  Br18  1  0.68081654  0.55488830  0.13297357  1
  Br  Br19  1  0.55485407  0.87405111  0.13297665  1
  Br  Br20  1  0.55488757  0.68081546  0.63297441  1
  Br  Br21  1  0.87404974  0.55485317  0.63297547  1
  Br  Br22  1  0.31918225  0.87407870  0.63297379  1
  Br  Br23  1  0.44511033  0.31918255  0.63297302  1
