# generated using pymatgen
data_LiI
_symmetry_space_group_name_H-M   'P 1'
_cell_length_a   13.03994102
_cell_length_b   13.03992263
_cell_length_c   7.97779784
_cell_angle_alpha   90.03375591
_cell_angle_beta   89.96664222
_cell_angle_gamma   120.00412754
_symmetry_Int_Tables_number   1
_chemical_formula_structural   LiI
_chemical_formula_sum   'Li18 I18'
_cell_volume   1174.75184549
_cell_formula_units_Z   18
loop_
 _symmetry_equiv_pos_site_id
 _symmetry_equiv_pos_as_xyz
  1  'x, y, z'
loop_
 _atom_site_type_symbol
 _atom_site_label
 _atom_site_symmetry_multiplicity
 _atom_site_fract_x
 _atom_site_fract_y
 _atom_site_fract_z
 _atom_site_occupancy
  Li  Li0  1  0.45730897  0.29155742  0.24712007  1
  Li  Li1  1  0.45790871  0.16647319  0.74778580  1
  Li  Li2  1  0.04176690  0.20936059  0.41379728  1
  Li  Li3  1  0.16725551  0.95806965  0.41438337  1
  Li  Li4  1  0.37525461  0.49939571  0.58107372  1
  Li  Li5  1  0.70860037  0.16609365  0.24773006  1
  Li  Li6  1  0.16685547  0.20874311  0.91446481  1
  Li  Li7  1  0.04191153  0.83272345  0.91439334  1
  Li  Li8  1  0.83350090  0.54207163  0.24779327  1
  Li  Li9  1  0.83393311  0.29140728  0.74772041  1
  Li  Li10  1  0.79065385  0.95824485  0.91379431  1
  Li  Li11  1  0.79125978  0.83316637  0.41446280  1
  Li  Li12  1  0.50019511  0.87541371  0.58110958  1
  Li  Li13  1  0.50061184  0.62475598  0.08106597  1
  Li  Li14  1  0.70843134  0.54267532  0.74712686  1
  Li  Li15  1  0.37509162  0.87601061  0.08046075  1
  Li  Li16  1  0.12398727  0.62491361  0.58046151  1
  Li  Li17  1  0.12459594  0.49981593  0.08112261  1
  I  I18  1  0.16680464  0.70801605  0.91449044  1
  I  I19  1  0.16695079  0.45894431  0.41505323  1
  I  I20  1  0.62530590  0.49984969  0.08115134  1
  I  I21  1  0.87486228  0.37470094  0.08177788  1
  I  I22  1  0.95863076  0.79180567  0.24845481  1
  I  I23  1  0.29198625  0.45847773  0.91513800  1
  I  I24  1  0.87439601  0.49971767  0.58170583  1
  I  I25  1  0.62530989  0.12514556  0.58178613  1
  I  I26  1  0.54106520  0.83305913  0.91504580  1
  I  I27  1  0.54152820  0.70801994  0.41513020  1
  I  I28  1  0.50013653  0.37467894  0.58115294  1
  I  I29  1  0.50027882  0.12560069  0.08170709  1
  I  I30  1  0.20772378  0.16638325  0.24838430  1
  I  I31  1  0.20817758  0.04134575  0.74845377  1
  I  I32  1  0.29198265  0.83319568  0.41448840  1
  I  I33  1  0.95865522  0.16653202  0.74782685  1
  I  I34  1  0.83347707  0.04136705  0.24782362  1
  I  I35  1  0.83360559  0.79226788  0.74838278  1
