# generated using pymatgen
data_LiI
_symmetry_space_group_name_H-M   'P 1'
_cell_length_a   4.38343244
_cell_length_b   4.38443409
_cell_length_c   11.13087518
_cell_angle_alpha   90.01145466
_cell_angle_beta   90.01569866
_cell_angle_gamma   90.01428094
_symmetry_Int_Tables_number   1
_chemical_formula_structural   LiI
_chemical_formula_sum   'Li4 I4'
_cell_volume   213.92283095
_cell_formula_units_Z   4
loop_
 _symmetry_equiv_pos_site_id
 _symmetry_equiv_pos_as_xyz
  1  'x, y, z'
loop_
 _atom_site_type_symbol
 _atom_site_label
 _atom_site_symmetry_multiplicity
 _atom_site_fract_x
 _atom_site_fract_y
 _atom_site_fract_z
 _atom_site_occupancy
  Li  Li0  1  0.50111893  0.00298728  0.12654508  1
  Li  Li1  1  -0.00013304  0.49581866  0.87658232  1
  Li  Li2  1  0.49874980  -0.00174486  0.62654441  1
  Li  Li3  1  -0.00165446  0.50023685  0.37650298  1
  I  I4  1  0.00052510  0.50080110  0.62649931  1
  I  I5  1  0.50034901  -0.00073705  0.37648034  1
  I  I6  1  0.00058399  0.50114233  0.12645269  1
  I  I7  1  0.50046066  0.00149569  0.87650463  1
