# generated using pymatgen
data_NaI
_symmetry_space_group_name_H-M   'P 1'
_cell_length_a   13.86734120
_cell_length_b   13.86928722
_cell_length_c   8.63423547
_cell_angle_alpha   90.03073003
_cell_angle_beta   89.93755982
_cell_angle_gamma   120.07660029
_symmetry_Int_Tables_number   1
_chemical_formula_structural   NaI
_chemical_formula_sum   'Na18 I18'
_cell_volume   1437.03010566
_cell_formula_units_Z   18
loop_
 _symmetry_equiv_pos_site_id
 _symmetry_equiv_pos_as_xyz
  1  'x, y, z'
loop_
 _atom_site_type_symbol
 _atom_site_label
 _atom_site_symmetry_multiplicity
 _atom_site_fract_x
 _atom_site_fract_y
 _atom_site_fract_z
 _atom_site_occupancy
  Na  Na0  1  0.99681510  0.56323895  0.24849037  1
  Na  Na1  1  0.10006843  0.32971468  0.08476596  1
  Na  Na2  1  0.00318520  0.43676125  0.75150976  1
  Na  Na3  1  0.56659809  0.00361800  0.24856714  1
  Na  Na4  1  0.23007617  0.89975915  0.08487060  1
  Na  Na5  1  0.56340992  0.56642574  0.75153739  1
  Na  Na6  1  0.10325680  0.76690758  0.58179612  1
  Na  Na7  1  0.43659006  0.43357440  0.24846266  1
  Na  Na8  1  0.43340179  0.99638149  0.75143282  1
  Na  Na9  1  0.89674304  0.23309255  0.41820401  1
  Na  Na10  1  0.76992345  0.10024112  0.91512941  1
  Na  Na11  1  0.23326480  0.33695146  0.58190056  1
  Na  Na12  1  0.76673499  0.66304830  0.41809965  1
  Na  Na13  1  0.89993135  0.67028488  0.91523403  1
  Na  Na14  1  0.66348188  0.89657231  0.58182361  1
  Na  Na15  1  0.33651863  0.10342800  0.41817642  1
  Na  Na16  1  0.66985174  0.77009434  0.08484330  1
  Na  Na17  1  0.33014860  0.22990578  0.91515678  1
  I  I18  1  0.53447300  0.66498500  0.41511621  1
  I  I19  1  0.53608110  0.86790206  0.91857679  1
  I  I20  1  0.46552711  0.33501519  0.58488373  1
  I  I21  1  0.13058550  0.46543130  0.41475618  1
  I  I22  1  0.33198835  0.46398183  0.91850580  1
  I  I23  1  0.66532144  0.13064839  0.58517248  1
  I  I24  1  0.00134448  0.20268459  0.74816093  1
  I  I25  1  0.33467800  0.86935134  0.41482736  1
  I  I26  1  0.86941459  0.53456854  0.58524381  1
  I  I27  1  0.99865532  0.79731539  0.25183904  1
  I  I28  1  0.66801151  0.53601807  0.08149421  1
  I  I29  1  0.79725224  0.79876459  0.74808994  1
  I  I30  1  0.20274797  0.20123513  0.25191022  1
  I  I31  1  0.46391897  0.13209786  0.08142285  1
  I  I32  1  0.20113948  0.99831820  0.74844915  1
  I  I33  1  0.79886062  0.00168212  0.25155070  1
  I  I34  1  0.13219402  0.66834890  0.91821747  1
  I  I35  1  0.86780625  0.33165153  0.08178256  1
