# generated using pymatgen
data_LiBr
_symmetry_space_group_name_H-M   'P 1'
_cell_length_a   3.95108174
_cell_length_b   3.95109493
_cell_length_c   13.05359475
_cell_angle_alpha   90.00013646
_cell_angle_beta   90.00005448
_cell_angle_gamma   90.00162298
_symmetry_Int_Tables_number   1
_chemical_formula_structural   LiBr
_chemical_formula_sum   'Li4 Br4'
_cell_volume   203.78096054
_cell_formula_units_Z   4
loop_
 _symmetry_equiv_pos_site_id
 _symmetry_equiv_pos_as_xyz
  1  'x, y, z'
loop_
 _atom_site_type_symbol
 _atom_site_label
 _atom_site_symmetry_multiplicity
 _atom_site_fract_x
 _atom_site_fract_y
 _atom_site_fract_z
 _atom_site_occupancy
  Li  Li0  1  -0.00483972  0.99337733  0.59326811  1
  Li  Li1  1  0.99336591  0.00483096  0.84326755  1
  Li  Li2  1  0.00483911  0.00662582  0.09326728  1
  Li  Li3  1  0.00663505  -0.00483335  0.34326732  1
  Br  Br4  1  0.49450755  0.00046437  0.71818331  1
  Br  Br5  1  0.00046047  0.50548486  0.96818331  1
  Br  Br6  1  0.50549260  -0.00046537  0.21818346  1
  Br  Br7  1  -0.00046097  0.49451538  0.46818347  1
