# generated using pymatgen
data_LiBr
_symmetry_space_group_name_H-M   'P 1'
_cell_length_a   7.91631596
_cell_length_b   7.91942971
_cell_length_c   12.36208669
_cell_angle_alpha   90.00053009
_cell_angle_beta   90.00154576
_cell_angle_gamma   90.03073761
_symmetry_Int_Tables_number   1
_chemical_formula_structural   LiBr
_chemical_formula_sum   'Li16 Br16'
_cell_volume   775.01257741
_cell_formula_units_Z   16
loop_
 _symmetry_equiv_pos_site_id
 _symmetry_equiv_pos_as_xyz
  1  'x, y, z'
loop_
 _atom_site_type_symbol
 _atom_site_label
 _atom_site_symmetry_multiplicity
 _atom_site_fract_x
 _atom_site_fract_y
 _atom_site_fract_z
 _atom_site_occupancy
  Li  Li0  1  0.18581501  0.31054993  0.50016066  1
  Li  Li1  1  0.18929301  0.68565885  -0.00022060  1
  Li  Li2  1  0.18581646  0.81054284  0.74983859  1
  Li  Li3  1  0.81417307  0.68941524  0.50017275  1
  Li  Li4  1  0.81071305  0.31434629  -0.00021440  1
  Li  Li5  1  0.68932409  0.68573148  0.75022651  1
  Li  Li6  1  0.31071601  0.31429250  0.75023934  1
  Li  Li7  1  0.18929999  0.18565852  0.25024055  1
  Li  Li8  1  0.81066947  0.81431963  0.25022242  1
  Li  Li9  1  0.31419784  0.18948180  0.00015650  1
  Li  Li10  1  0.31073445  0.81429687  0.49977585  1
  Li  Li11  1  0.68579914  0.81054652  0.00016338  1
  Li  Li12  1  0.68925608  0.18568159  0.49978259  1
  Li  Li13  1  0.68583956  0.31055504  0.24980292  1
  Li  Li14  1  0.31416592  0.68944060  0.24981549  1
  Li  Li15  1  0.81418002  0.18944908  0.74983774  1
  Br  Br16  1  0.25073594  0.44172650  0.12628971  1
  Br  Br17  1  0.05828454  0.75100752  0.37377495  1
  Br  Br18  1  0.25083022  0.94168469  0.12371590  1
  Br  Br19  1  0.74922255  0.55827826  0.12628135  1
  Br  Br20  1  0.94175443  0.24902663  0.37378060  1
  Br  Br21  1  0.55824138  0.75091037  0.37626466  1
  Br  Br22  1  0.44171086  0.24909855  0.37625561  1
  Br  Br23  1  0.05831383  0.25093541  0.87619892  1
  Br  Br24  1  0.94172319  0.74906560  0.87620778  1
  Br  Br25  1  0.24922703  0.05832851  0.62628331  1
  Br  Br26  1  0.44175480  0.74905027  0.87377023  1
  Br  Br27  1  0.75083383  0.94167246  0.62628177  1
  Br  Br28  1  0.55821649  0.25094105  0.87378230  1
  Br  Br29  1  0.75077381  0.44174604  0.62370014  1
  Br  Br30  1  0.24918741  0.55826972  0.62369192  1
  Br  Br31  1  0.74919652  0.05829164  0.12372055  1
