# generated using pymatgen
data_LiBr
_symmetry_space_group_name_H-M   'P 1'
_cell_length_a   11.40546261
_cell_length_b   11.40545946
_cell_length_c   7.98241110
_cell_angle_alpha   90.00501553
_cell_angle_beta   89.99496839
_cell_angle_gamma   120.00784326
_symmetry_Int_Tables_number   1
_chemical_formula_structural   LiBr
_chemical_formula_sum   'Li18 Br18'
_cell_volume   899.19955019
_cell_formula_units_Z   18
loop_
 _symmetry_equiv_pos_site_id
 _symmetry_equiv_pos_as_xyz
  1  'x, y, z'
loop_
 _atom_site_type_symbol
 _atom_site_label
 _atom_site_symmetry_multiplicity
 _atom_site_fract_x
 _atom_site_fract_y
 _atom_site_fract_z
 _atom_site_occupancy
  Li  Li0  1  0.40505845  0.20134146  0.03526045  1
  Li  Li1  1  0.40504342  0.20370023  0.53526775  1
  Li  Li2  1  0.13198362  0.26159007  0.20180552  1
  Li  Li3  1  0.12961236  0.86802228  0.20180995  1
  Li  Li4  1  0.46529095  0.53701977  0.36852913  1
  Li  Li5  1  0.79866297  0.20371268  0.03525337  1
  Li  Li6  1  0.12962760  0.26160475  0.70181458  1
  Li  Li7  1  0.13198025  0.87038417  0.70180698  1
  Li  Li8  1  0.79630046  0.59495606  0.03526527  1
  Li  Li9  1  0.79628730  0.20133464  0.53524628  1
  Li  Li10  1  0.73841409  0.86802181  0.70180791  1
  Li  Li11  1  0.73839127  0.87037105  0.20181275  1
  Li  Li12  1  0.46299372  0.92828370  0.36853102  1
  Li  Li13  1  0.46298266  0.53470819  0.86852562  1
  Li  Li14  1  0.79865784  0.59494154  0.53526001  1
  Li  Li15  1  0.46529180  0.92826759  0.86852563  1
  Li  Li16  1  0.07173252  0.53471013  0.36852577  1
  Li  Li17  1  0.07171742  0.53700913  0.86852722  1
  Br  Br18  1  0.24072241  0.11968659  0.27597538  1
  Br  Br19  1  0.24071912  0.12103764  0.77598183  1
  Br  Br20  1  0.21363673  0.42592714  0.44252530  1
  Br  Br21  1  0.21228284  0.78635992  0.44253630  1
  Br  Br22  1  0.54697854  0.45440759  0.60926106  1
  Br  Br23  1  0.88031860  0.12103858  0.27597531  1
  Br  Br24  1  0.21228394  0.42592953  0.94253150  1
  Br  Br25  1  0.21364152  0.78771849  0.94254021  1
  Br  Br26  1  0.87895723  0.75927900  0.27597921  1
  Br  Br27  1  0.87895970  0.11968471  0.77597789  1
  Br  Br28  1  0.57407114  0.78636068  0.94252545  1
  Br  Br29  1  0.57407185  0.78771541  0.44253470  1
  Br  Br30  1  0.54559288  0.09257600  0.60925452  1
  Br  Br31  1  0.54559230  0.45301987  0.10926150  1
  Br  Br32  1  0.88031520  0.75927813  0.77597243  1
  Br  Br33  1  0.54698059  0.09257600  0.10924669  1
  Br  Br34  1  0.90742027  0.45301825  0.60924414  1
  Br  Br35  1  0.90742642  0.45440724  0.10925306  1
