# generated using pymatgen
data_LiBr
_symmetry_space_group_name_H-M   'P 1'
_cell_length_a   7.25509874
_cell_length_b   6.92736613
_cell_length_c   4.32341137
_cell_angle_alpha   89.99999583
_cell_angle_beta   90.00000148
_cell_angle_gamma   89.99957389
_symmetry_Int_Tables_number   1
_chemical_formula_structural   LiBr
_chemical_formula_sum   'Li4 Br4'
_cell_volume   217.28914428
_cell_formula_units_Z   4
loop_
 _symmetry_equiv_pos_site_id
 _symmetry_equiv_pos_as_xyz
  1  'x, y, z'
loop_
 _atom_site_type_symbol
 _atom_site_label
 _atom_site_symmetry_multiplicity
 _atom_site_fract_x
 _atom_site_fract_y
 _atom_site_fract_z
 _atom_site_occupancy
  Li  Li0  1  0.84835740  0.65241293  0.25035174  1
  Li  Li1  1  0.15164808  0.15241880  0.24964854  1
  Li  Li2  1  0.65164262  0.34758699  0.75035255  1
  Li  Li3  1  0.34835195  0.84758122  0.74965110  1
  Br  Br4  1  0.17416005  0.77926100  0.24873223  1
  Br  Br5  1  0.82583898  0.27925897  0.25126667  1
  Br  Br6  1  0.32583996  0.22073910  0.74873088  1
  Br  Br7  1  0.67416098  0.72074100  0.75126630  1
