# generated using pymatgen
data_LiI
_symmetry_space_group_name_H-M   'P 1'
_cell_length_a   4.30363081
_cell_length_b   4.30366283
_cell_length_c   11.68298022
_cell_angle_alpha   89.99962650
_cell_angle_beta   90.00007766
_cell_angle_gamma   90.00115536
_symmetry_Int_Tables_number   1
_chemical_formula_structural   LiI
_chemical_formula_sum   'Li4 I4'
_cell_volume   216.38486893
_cell_formula_units_Z   4
loop_
 _symmetry_equiv_pos_site_id
 _symmetry_equiv_pos_as_xyz
  1  'x, y, z'
loop_
 _atom_site_type_symbol
 _atom_site_label
 _atom_site_symmetry_multiplicity
 _atom_site_fract_x
 _atom_site_fract_y
 _atom_site_fract_z
 _atom_site_occupancy
  Li  Li0  1  0.00806961  0.49858873  -0.00837398  1
  Li  Li1  1  0.49862293  -0.00811198  0.74162580  1
  Li  Li2  1  -0.00806973  0.50139753  0.49162528  1
  Li  Li3  1  0.50137555  0.00811811  0.24162508  1
  I  I4  1  -0.00006594  0.49846531  0.74165663  1
  I  I5  1  0.49847978  0.00007030  0.49165178  1
  I  I6  1  0.00006659  0.50154061  0.24165881  1
  I  I7  1  0.50152122  -0.00006860  0.99165071  1
