# generated using pymatgen
data_LiI
_symmetry_space_group_name_H-M   'P 1'
_cell_length_a   8.54443542
_cell_length_b   8.54507526
_cell_length_c   11.92380175
_cell_angle_alpha   90.00045648
_cell_angle_beta   90.00057740
_cell_angle_gamma   89.99936374
_symmetry_Int_Tables_number   1
_chemical_formula_structural   LiI
_chemical_formula_sum   'Li16 I16'
_cell_volume   870.59067387
_cell_formula_units_Z   16
loop_
 _symmetry_equiv_pos_site_id
 _symmetry_equiv_pos_as_xyz
  1  'x, y, z'
loop_
 _atom_site_type_symbol
 _atom_site_label
 _atom_site_symmetry_multiplicity
 _atom_site_fract_x
 _atom_site_fract_y
 _atom_site_fract_z
 _atom_site_occupancy
  Li  Li0  1  0.49864869  0.74975232  0.75647563  1
  Li  Li1  1  0.24975340  0.49864875  0.00647625  1
  Li  Li2  1  0.50133897  0.74976183  0.25647607  1
  Li  Li3  1  0.50135137  0.25024295  0.75647444  1
  Li  Li4  1  0.75024391  0.50135037  0.00647317  1
  Li  Li5  1  0.25024187  -0.00134015  0.00647552  1
  Li  Li6  1  0.74976057  0.00133963  0.00647626  1
  Li  Li7  1  0.75023859  0.49865944  0.50647527  1
  Li  Li8  1  0.24975873  0.50133943  0.50647775  1
  Li  Li9  1  0.00135164  0.75024273  0.25647430  1
  Li  Li10  1  0.25024451  0.00134986  0.50647385  1
  Li  Li11  1  -0.00135243  0.24976179  0.25647336  1
  Li  Li12  1  0.74975714  -0.00135141  0.50647527  1
  Li  Li13  1  0.00134001  0.24975978  0.75647366  1
  Li  Li14  1  -0.00133851  0.75024021  0.75647420  1
  Li  Li15  1  0.49866099  0.25023602  0.25647500  1
  I  I16  1  0.75057754  0.49987272  0.75716455  1
  I  I17  1  -0.00012674  0.75057826  0.00716464  1
  I  I18  1  0.24942842  0.49987015  0.25716660  1
  I  I19  1  0.24942203  0.50012755  0.75716561  1
  I  I20  1  0.00012633  0.24942346  0.00716422  1
  I  I21  1  0.50013106  0.25057301  0.00716624  1
  I  I22  1  0.49986987  0.74942755  0.00716691  1
  I  I23  1  0.00013123  0.75057113  0.50716558  1
  I  I24  1  -0.00013053  0.24942917  0.50716567  1
  I  I25  1  0.74942274  0.00012797  0.25716485  1
  I  I26  1  0.50012668  0.74942168  0.50716463  1
  I  I27  1  0.25057721  -0.00012692  0.25716420  1
  I  I28  1  0.49987253  0.25057895  0.50716446  1
  I  I29  1  0.74942918  -0.00013048  0.75716684  1
  I  I30  1  0.25057168  0.00013057  0.75716625  1
  I  I31  1  0.75057133  0.50013168  0.25716611  1
