# generated using pymatgen
data_LiBr
_symmetry_space_group_name_H-M   'P 1'
_cell_length_a   11.20584813
_cell_length_b   11.20594023
_cell_length_c   8.09231537
_cell_angle_alpha   89.98859964
_cell_angle_beta   90.01123821
_cell_angle_gamma   119.97671654
_symmetry_Int_Tables_number   1
_chemical_formula_structural   LiBr
_chemical_formula_sum   'Li18 Br18'
_cell_volume   880.23432562
_cell_formula_units_Z   18
loop_
 _symmetry_equiv_pos_site_id
 _symmetry_equiv_pos_as_xyz
  1  'x, y, z'
loop_
 _atom_site_type_symbol
 _atom_site_label
 _atom_site_symmetry_multiplicity
 _atom_site_fract_x
 _atom_site_fract_y
 _atom_site_fract_z
 _atom_site_occupancy
  Li  Li0  1  0.06958902  0.53619679  0.91968976  1
  Li  Li1  1  0.06955693  0.53326477  0.41969389  1
  Li  Li2  1  0.79707798  0.59723038  0.08629124  1
  Li  Li3  1  0.80030723  0.20295536  0.08633925  1
  Li  Li4  1  0.13033183  0.86648473  0.25310888  1
  Li  Li5  1  0.46374426  0.53332736  0.91968796  1
  Li  Li6  1  0.80030406  0.59726287  0.58634790  1
  Li  Li7  1  0.79704530  0.19969087  0.58633992  1
  Li  Li8  1  0.46673451  0.93044215  0.91969010  1
  Li  Li9  1  0.46666979  0.53625509  0.41968872  1
  Li  Li10  1  0.40276898  0.20291860  0.58628526  1
  Li  Li11  1  0.40273521  0.19969424  0.08634292  1
  Li  Li12  1  0.13359493  0.26389233  0.25307638  1
  Li  Li13  1  0.13351220  0.86966436  0.75310917  1
  Li  Li14  1  0.46380318  0.93041196  0.41968767  1
  Li  Li15  1  0.13042295  0.26386030  0.75305613  1
  Li  Li16  1  0.73613743  0.86957413  0.25305495  1
  Li  Li17  1  0.73610678  0.86640193  0.75307745  1
  Br  Br18  1  0.88094591  0.12190235  0.32902227  1
  Br  Br19  1  0.88094293  0.75911908  0.82916381  1
  Br  Br20  1  0.21154660  0.78582349  0.49577465  1
  Br  Br21  1  0.57417376  0.78843903  0.49589851  1
  Br  Br22  1  0.54473796  0.09234193  0.66255112  1
  Br  Br23  1  0.87807444  0.75906067  0.32914820  1
  Br  Br24  1  0.57414941  0.78580506  -0.00409261  1
  Br  Br25  1  0.21156263  0.42582760  -0.00409831  1
  Br  Br26  1  0.24088163  0.11905843  0.32915594  1
  Br  Br27  1  0.24094175  0.12192667  0.82914028  1
  Br  Br28  1  0.21417952  0.78845619  -0.00422469  1
  Br  Br29  1  0.21419578  0.42585051  0.49591061  1
  Br  Br30  1  0.90764916  0.45240797  0.66257217  1
  Br  Br31  1  0.90766146  0.45526529  0.16255074  1
  Br  Br32  1  0.87809926  0.11905447  0.82902371  1
  Br  Br33  1  0.54467969  0.45245914  0.16239719  1
  Br  Br34  1  0.54754150  0.45532035  0.66239559  1
  Br  Br35  1  0.54759403  0.09235354  0.16257131  1
