# generated using pymatgen
data_LiBr
_symmetry_space_group_name_H-M   'P 1'
_cell_length_a   4.18350527
_cell_length_b   4.18353874
_cell_length_c   10.05211696
_cell_angle_alpha   89.99951030
_cell_angle_beta   90.00126440
_cell_angle_gamma   120.00233276
_symmetry_Int_Tables_number   1
_chemical_formula_structural   LiBr
_chemical_formula_sum   'Li3 Br3'
_cell_volume   152.35688015
_cell_formula_units_Z   3
loop_
 _symmetry_equiv_pos_site_id
 _symmetry_equiv_pos_as_xyz
  1  'x, y, z'
loop_
 _atom_site_type_symbol
 _atom_site_label
 _atom_site_symmetry_multiplicity
 _atom_site_fract_x
 _atom_site_fract_y
 _atom_site_fract_z
 _atom_site_occupancy
  Li  Li0  1  0.33042462  0.00082147  0.81289331  1
  Li  Li1  1  -0.00084433  0.32960246  0.14606494  1
  Li  Li2  1  0.67039479  0.66957509  0.47955227  1
  Br  Br3  1  0.33675474  0.00302604  0.56030131  1
  Br  Br4  1  -0.00301624  0.33370681  0.89385483  1
  Br  Br5  1  0.66628641  0.66326814  0.22713220  1
