# generated using pymatgen
data_LiBr
_symmetry_space_group_name_H-M   'P 1'
_cell_length_a   6.59384689
_cell_length_b   4.48066403
_cell_length_c   6.69477994
_cell_angle_alpha   90.00000334
_cell_angle_beta   90.00016863
_cell_angle_gamma   90.00001155
_symmetry_Int_Tables_number   1
_chemical_formula_structural   LiBr
_chemical_formula_sum   'Li4 Br4'
_cell_volume   197.79601849
_cell_formula_units_Z   4
loop_
 _symmetry_equiv_pos_site_id
 _symmetry_equiv_pos_as_xyz
  1  'x, y, z'
loop_
 _atom_site_type_symbol
 _atom_site_label
 _atom_site_symmetry_multiplicity
 _atom_site_fract_x
 _atom_site_fract_y
 _atom_site_fract_z
 _atom_site_occupancy
  Li  Li0  1  0.33267115  0.50087311  0.59552554  1
  Li  Li1  1  0.83267169  -0.00087170  0.59552529  1
  Li  Li2  1  0.66732934  0.49912657  0.09552783  1
  Li  Li3  1  0.16732855  0.00087205  0.09552788  1
  Br  Br4  1  0.80688551  -0.00022316  0.97433440  1
  Br  Br5  1  0.30688519  0.50022220  0.97433390  1
  Br  Br6  1  0.19311413  0.00022315  0.47433520  1
  Br  Br7  1  0.69311444  0.49977779  0.47433509  1
