# generated using pymatgen
data_LiBr
_symmetry_space_group_name_H-M   'P 1'
_cell_length_a   3.89714935
_cell_length_b   3.89706602
_cell_length_c   11.01589988
_cell_angle_alpha   89.99808370
_cell_angle_beta   89.92087966
_cell_angle_gamma   89.99993231
_symmetry_Int_Tables_number   1
_chemical_formula_structural   LiBr
_chemical_formula_sum   'Li4 Br4'
_cell_volume   167.30325064
_cell_formula_units_Z   4
loop_
 _symmetry_equiv_pos_site_id
 _symmetry_equiv_pos_as_xyz
  1  'x, y, z'
loop_
 _atom_site_type_symbol
 _atom_site_label
 _atom_site_symmetry_multiplicity
 _atom_site_fract_x
 _atom_site_fract_y
 _atom_site_fract_z
 _atom_site_occupancy
  Li  Li0  1  0.00043405  0.49963518  0.23632520  1
  Li  Li1  1  0.49963608  -0.00042458  -0.01366361  1
  Li  Li2  1  -0.00044057  0.50037356  0.73631237  1
  Li  Li3  1  0.50038036  0.00040217  0.48630427  1
  Br  Br4  1  0.49991561  -0.00012646  0.23780466  1
  Br  Br5  1  -0.00013718  0.50008475  0.98776571  1
  Br  Br6  1  0.50008251  0.00013312  0.73780384  1
  Br  Br7  1  0.00012914  0.49992225  0.48783576  1
