# generated using pymatgen
data_LiBr
_symmetry_space_group_name_H-M   'P 1'
_cell_length_a   11.30381323
_cell_length_b   9.89950566
_cell_length_c   8.70326412
_cell_angle_alpha   90.00002496
_cell_angle_beta   89.99996453
_cell_angle_gamma   90.00007272
_symmetry_Int_Tables_number   1
_chemical_formula_structural   LiBr
_chemical_formula_sum   'Li16 Br16'
_cell_volume   973.91408157
_cell_formula_units_Z   16
loop_
 _symmetry_equiv_pos_site_id
 _symmetry_equiv_pos_as_xyz
  1  'x, y, z'
loop_
 _atom_site_type_symbol
 _atom_site_label
 _atom_site_symmetry_multiplicity
 _atom_site_fract_x
 _atom_site_fract_y
 _atom_site_fract_z
 _atom_site_occupancy
  Li  Li0  1  0.89493309  0.24999778  0.74375141  1
  Li  Li1  1  0.10506607  0.75000354  0.74374976  1
  Li  Li2  1  0.35506571  0.49999508  0.99374917  1
  Li  Li3  1  0.60506578  0.75000409  0.24374939  1
  Li  Li4  1  0.85506542  0.49999591  0.49374976  1
  Li  Li5  1  0.14493459  0.00000408  0.99374898  1
  Li  Li6  1  0.39493510  0.24999584  0.24375000  1
  Li  Li7  1  0.85506630  -0.00000368  0.99375001  1
  Li  Li8  1  0.14493328  0.50000362  0.49374920  1
  Li  Li9  1  0.39493445  0.74999659  0.74375025  1
  Li  Li10  1  0.60506629  0.25000339  0.74374921  1
  Li  Li11  1  0.35506567  -0.00000414  0.49374954  1
  Li  Li12  1  0.64493452  0.00000435  0.49374919  1
  Li  Li13  1  0.64493307  0.50000359  0.99374995  1
  Li  Li14  1  0.89493457  0.74999678  0.24375036  1
  Li  Li15  1  0.10506550  0.25000403  0.24374939  1
  Br  Br16  1  0.00011433  0.30094941  0.49358038  1
  Br  Br17  1  -0.00011530  0.69905040  0.49358083  1
  Br  Br18  1  0.24988504  0.55094980  0.74357954  1
  Br  Br19  1  0.49988453  0.69905005  -0.00641929  1
  Br  Br20  1  0.74988499  0.55095022  0.24357983  1
  Br  Br21  1  0.25011516  0.94904982  0.74357997  1
  Br  Br22  1  0.50011491  0.30094887  -0.00642046  1
  Br  Br23  1  0.74988520  0.05094962  0.74358041  1
  Br  Br24  1  0.25011579  0.44904946  0.24358061  1
  Br  Br25  1  0.50011562  0.80094987  0.49358059  1
  Br  Br26  1  0.49988527  0.19905002  0.49358027  1
  Br  Br27  1  0.24988492  0.05094959  0.24358016  1
  Br  Br28  1  0.75011538  0.94905036  0.24358041  1
  Br  Br29  1  0.75011431  0.44905121  0.74358016  1
  Br  Br30  1  0.00011515  0.80095004  -0.00641973  1
  Br  Br31  1  -0.00011471  0.19905039  -0.00641987  1
