# generated using pymatgen
data_NaI
_symmetry_space_group_name_H-M   'P 1'
_cell_length_a   4.59960431
_cell_length_b   4.60506165
_cell_length_c   15.14670325
_cell_angle_alpha   90.00093367
_cell_angle_beta   89.99965324
_cell_angle_gamma   119.98503128
_symmetry_Int_Tables_number   1
_chemical_formula_structural   NaI
_chemical_formula_sum   'Na4 I4'
_cell_volume   277.88823253
_cell_formula_units_Z   4
loop_
 _symmetry_equiv_pos_site_id
 _symmetry_equiv_pos_as_xyz
  1  'x, y, z'
loop_
 _atom_site_type_symbol
 _atom_site_label
 _atom_site_symmetry_multiplicity
 _atom_site_fract_x
 _atom_site_fract_y
 _atom_site_fract_z
 _atom_site_occupancy
  Na  Na0  1  0.16536275  0.83582730  0.40098120  1
  Na  Na1  1  0.83114502  0.16815309  0.64657841  1
  Na  Na2  1  -0.16537136  0.16417612  0.90097213  1
  Na  Na3  1  0.16885716  0.83184664  0.14655789  1
  I  I4  1  0.83423996  0.16751635  0.27623565  1
  I  I5  1  0.49844704  0.50264857  0.52585233  1
  I  I6  1  0.16576728  0.83248357  0.77622851  1
  I  I7  1  0.50155215  0.49734836  0.02587301  1
