# generated using pymatgen
data_KI
_symmetry_space_group_name_H-M   'P 1'
_cell_length_a   8.48996252
_cell_length_b   8.48998072
_cell_length_c   13.51098811
_cell_angle_alpha   90.00014030
_cell_angle_beta   89.99999743
_cell_angle_gamma   120.00039480
_symmetry_Int_Tables_number   1
_chemical_formula_structural   KI
_chemical_formula_sum   'K9 I9'
_cell_volume   843.39008821
_cell_formula_units_Z   9
loop_
 _symmetry_equiv_pos_site_id
 _symmetry_equiv_pos_as_xyz
  1  'x, y, z'
loop_
 _atom_site_type_symbol
 _atom_site_label
 _atom_site_symmetry_multiplicity
 _atom_site_fract_x
 _atom_site_fract_y
 _atom_site_fract_z
 _atom_site_occupancy
  K  K0  1  0.00000769  0.33371010  -0.00789659  1
  K  K1  1  0.99962291  0.33296418  0.65877013  1
  K  K2  1  0.33334135  0.00037706  0.65877010  1
  K  K3  1  0.33295635  0.99963099  0.32543675  1
  K  K4  1  0.66667419  0.66704308  0.32543678  1
  K  K5  1  0.00036965  0.33332698  0.32543676  1
  K  K6  1  0.66629015  0.66629765  -0.00789654  1
  K  K7  1  0.66703633  0.66666038  0.65877002  1
  K  K8  1  0.33370300  -0.00000652  -0.00789661  1
  I  I9  1  -0.00060690  0.66700519  0.82545587  1
  I  I10  1  0.66632770  -0.00094610  0.49212211  1
  I  I11  1  0.33272637  0.33367182  0.49212258  1
  I  I12  1  -0.00033896  0.66572057  0.15878882  1
  I  I13  1  0.66605975  0.00033850  0.15878923  1
  I  I14  1  0.33427864  0.33393960  0.15878901  1
  I  I15  1  0.33299441  0.33238731  0.82545546  1
  I  I16  1  0.00094537  0.66727297  0.49212234  1
  I  I17  1  0.66761200  0.00060622  0.82545573  1
