# generated using pymatgen
data_LiBr
_symmetry_space_group_name_H-M   'P 1'
_cell_length_a   3.63431109
_cell_length_b   4.46430716
_cell_length_c   6.85100339
_cell_angle_alpha   90.00022952
_cell_angle_beta   89.96427504
_cell_angle_gamma   90.01021508
_symmetry_Int_Tables_number   1
_chemical_formula_structural   LiBr
_chemical_formula_sum   'Li2 Br2'
_cell_volume   111.15532141
_cell_formula_units_Z   2
loop_
 _symmetry_equiv_pos_site_id
 _symmetry_equiv_pos_as_xyz
  1  'x, y, z'
loop_
 _atom_site_type_symbol
 _atom_site_label
 _atom_site_symmetry_multiplicity
 _atom_site_fract_x
 _atom_site_fract_y
 _atom_site_fract_z
 _atom_site_occupancy
  Li  Li0  1  0.28149397  0.49753100  0.10052354  1
  Li  Li1  1  0.28149615  0.50247018  0.60052375  1
  Br  Br2  1  0.78120618  0.32878315  0.85004855  1
  Br  Br3  1  0.78126682  0.67121567  0.35005033  1
