# generated using pymatgen
data_LiI
_symmetry_space_group_name_H-M   'P 1'
_cell_length_a   12.58334763
_cell_length_b   12.58333354
_cell_length_c   8.67870040
_cell_angle_alpha   89.98727639
_cell_angle_beta   90.01279506
_cell_angle_gamma   119.97713983
_symmetry_Int_Tables_number   1
_chemical_formula_structural   LiI
_chemical_formula_sum   'Li18 I18'
_cell_volume   1190.35695028
_cell_formula_units_Z   18
loop_
 _symmetry_equiv_pos_site_id
 _symmetry_equiv_pos_as_xyz
  1  'x, y, z'
loop_
 _atom_site_type_symbol
 _atom_site_label
 _atom_site_symmetry_multiplicity
 _atom_site_fract_x
 _atom_site_fract_y
 _atom_site_fract_z
 _atom_site_occupancy
  Li  Li0  1  0.87019091  0.13238052  0.14209012  1
  Li  Li1  1  0.87026612  0.73783265  0.64226425  1
  Li  Li2  1  0.20096008  0.79635362  0.30883640  1
  Li  Li3  1  0.59538092  0.79896531  0.30894088  1
  Li  Li4  1  0.53437776  0.07117312  0.47558506  1
  Li  Li5  1  0.86768010  0.73781142  0.14225976  1
  Li  Li6  1  0.59539525  0.79627953  0.80890433  1
  Li  Li7  1  0.20103176  0.40461897  0.80893989  1
  Li  Li8  1  0.26216690  0.12973655  0.14226713  1
  Li  Li9  1  0.26218880  0.13232079  0.64226406  1
  Li  Li10  1  0.20364927  0.79904237  0.80883536  1
  Li  Li11  1  0.20371670  0.40460539  0.30890308  1
  Li  Li12  1  0.92885126  0.46306632  0.47557153  1
  Li  Li13  1  0.92882589  0.46562532  -0.02441776  1
  Li  Li14  1  0.86762080  0.12981020  0.64209027  1
  Li  Li15  1  0.53428331  0.46311107  -0.02462240  1
  Li  Li16  1  0.53688586  0.46571233  0.47537805  1
  Li  Li17  1  0.53693521  0.07114979  -0.02442563  1
  I  I18  1  0.09375453  0.54812991  0.73551379  1
  I  I19  1  0.09374942  0.54566520  0.23549528  1
  I  I20  1  0.78517329  0.57297906  0.90233562  1
  I  I21  1  0.78769280  0.21481357  0.90213229  1
  I  I22  1  0.11857765  0.87903865  0.06884753  1
  I  I23  1  0.45188545  0.54573141  0.73528716  1
  I  I24  1  0.78779438  0.57299127  0.40233757  1
  I  I25  1  0.78518955  0.21230835  0.40213135  1
  I  I26  1  0.45433657  0.90624958  0.73549763  1
  I  I27  1  0.45426517  0.54811083  0.23528755  1
  I  I28  1  0.42702124  0.21482307  0.40233825  1
  I  I29  1  0.42700726  0.21220423  0.90233981  1
  I  I30  1  0.12103731  0.23964541  0.06895972  1
  I  I31  1  0.12096340  0.88142414  0.56884786  1
  I  I32  1  0.45187188  0.90624395  0.23551558  1
  I  I33  1  0.11857098  0.23965410  0.56898510  1
  I  I34  1  0.76034650  0.88142935  0.06898712  1
  I  I35  1  0.76035576  0.87896261  0.56896193  1
