# generated using pymatgen
data_LiBr
_symmetry_space_group_name_H-M   'P 1'
_cell_length_a   11.49406453
_cell_length_b   11.49411596
_cell_length_c   3.97574684
_cell_angle_alpha   89.99543178
_cell_angle_beta   90.00275401
_cell_angle_gamma   120.00481899
_symmetry_Int_Tables_number   1
_chemical_formula_structural   LiBr
_chemical_formula_sum   'Li9 Br9'
_cell_volume   454.85970680
_cell_formula_units_Z   9
loop_
 _symmetry_equiv_pos_site_id
 _symmetry_equiv_pos_as_xyz
  1  'x, y, z'
loop_
 _atom_site_type_symbol
 _atom_site_label
 _atom_site_symmetry_multiplicity
 _atom_site_fract_x
 _atom_site_fract_y
 _atom_site_fract_z
 _atom_site_occupancy
  Li  Li0  1  0.86973562  0.13006163  0.33182362  1
  Li  Li1  1  0.20328400  0.40635234  -0.00158992  1
  Li  Li2  1  0.20307295  0.79672952  -0.00159444  1
  Li  Li3  1  0.53662980  0.07301255  0.66513762  1
  Li  Li4  1  0.53638932  0.46338165  0.66513237  1
  Li  Li5  1  0.92697869  0.46360885  0.66512881  1
  Li  Li6  1  0.86994796  0.73967646  0.33182475  1
  Li  Li7  1  0.59363831  0.79692394  -0.00159237  1
  Li  Li8  1  0.26030889  0.13026016  0.33182474  1
  Br  Br9  1  0.09199466  0.54604376  0.14452338  1
  Br  Br10  1  0.78730192  0.21262791  0.81114016  1
  Br  Br11  1  0.42532596  0.21270071  0.81119106  1
  Br  Br12  1  0.12062729  0.87927996  0.47776050  1
  Br  Br13  1  0.75865488  0.87937366  0.47780476  1
  Br  Br14  1  0.12072301  0.24134347  0.47783437  1
  Br  Br15  1  0.45396001  0.54595260  0.14447970  1
  Br  Br16  1  0.78737563  0.57466782  0.81122027  1
  Br  Br17  1  0.45405111  0.90800303  0.14455451  1
