# generated using pymatgen
data_LiI
_symmetry_space_group_name_H-M   'P 1'
_cell_length_a   14.76662889
_cell_length_b   14.76664590
_cell_length_c   13.99245490
_cell_angle_alpha   90.00003168
_cell_angle_beta   89.99993213
_cell_angle_gamma   89.99990283
_symmetry_Int_Tables_number   1
_chemical_formula_structural   LiI
_chemical_formula_sum   'Li32 I32'
_cell_volume   3051.10488297
_cell_formula_units_Z   32
loop_
 _symmetry_equiv_pos_site_id
 _symmetry_equiv_pos_as_xyz
  1  'x, y, z'
loop_
 _atom_site_type_symbol
 _atom_site_label
 _atom_site_symmetry_multiplicity
 _atom_site_fract_x
 _atom_site_fract_y
 _atom_site_fract_z
 _atom_site_occupancy
  Li  Li0  1  0.19734569  0.57297803  0.29741617  1
  Li  Li1  1  0.42702222  0.80265489  0.20258325  1
  Li  Li2  1  0.92702189  0.69734821  0.20258770  1
  Li  Li3  1  0.30265686  0.92702098  0.79741550  1
  Li  Li4  1  0.07297858  0.69734533  0.70258618  1
  Li  Li5  1  0.92685672  0.19771938  0.04723378  1
  Li  Li6  1  0.07314380  0.80227717  0.04723159  1
  Li  Li7  1  0.42685658  0.69772096  0.54723138  1
  Li  Li8  1  0.57297865  0.80265602  0.70258438  1
  Li  Li9  1  0.57314362  0.30227724  0.54723153  1
  Li  Li10  1  0.80265227  0.57297853  0.79741236  1
  Li  Li11  1  0.30265311  0.07297859  0.29741257  1
  Li  Li12  1  0.80265507  0.42702107  0.29741376  1
  Li  Li13  1  0.57297818  0.19734698  0.20258739  1
  Li  Li14  1  0.07297999  0.30265980  0.20257955  1
  Li  Li15  1  0.69734609  0.07297951  0.79741569  1
  Li  Li16  1  0.92702195  0.30265317  0.70258629  1
  Li  Li17  1  0.42702004  0.19734295  0.70258184  1
  Li  Li18  1  0.19772297  0.92685619  0.45277018  1
  Li  Li19  1  0.69772183  0.57314258  0.45276945  1
  Li  Li20  1  0.69772369  0.42685736  0.95277083  1
  Li  Li21  1  0.19772107  0.07314345  0.95276878  1
  Li  Li22  1  0.30227713  0.57314273  0.95277129  1
  Li  Li23  1  0.80227678  0.92685688  0.95277004  1
  Li  Li24  1  0.80227945  0.07314301  0.45276856  1
  Li  Li25  1  0.30227664  0.42685629  0.45276871  1
  Li  Li26  1  0.92685629  0.80227979  0.54723284  1
  Li  Li27  1  0.42685778  0.30227571  0.04722751  1
  Li  Li28  1  0.57314307  0.69772201  0.04723200  1
  Li  Li29  1  0.07314286  0.19772333  0.54723088  1
  Li  Li30  1  0.69734245  0.92702094  0.29741601  1
  Li  Li31  1  0.19734548  0.42702245  0.79741400  1
  I  I32  1  0.39801731  0.34142790  0.58752253  1
  I  I33  1  0.65857164  0.60198216  0.91247737  1
  I  I34  1  0.15857297  0.89801722  0.91247728  1
  I  I35  1  0.10198320  0.15857184  0.08752484  1
  I  I36  1  0.84142673  0.89801700  0.41247615  1
  I  I37  1  0.15827316  0.39801142  0.33771390  1
  I  I38  1  0.84172483  0.60198818  0.33771269  1
  I  I39  1  0.65827382  0.89801203  0.83771355  1
  I  I40  1  0.34142770  0.60198191  0.41247789  1
  I  I41  1  0.34172614  0.10198821  0.83771431  1
  I  I42  1  0.60198210  0.34142792  0.08752315  1
  I  I43  1  0.10198265  0.84142653  0.58752242  1
  I  I44  1  0.60198275  0.65857196  0.58752401  1
  I  I45  1  0.34142671  0.39801723  0.91247697  1
  I  I46  1  0.84142940  0.10198175  0.91247655  1
  I  I47  1  0.89801854  0.84142895  0.08752329  1
  I  I48  1  0.15857260  0.10198214  0.41247842  1
  I  I49  1  0.65857353  0.39801734  0.41247758  1
  I  I50  1  0.39801265  0.15827395  0.16228547  1
  I  I51  1  0.89801103  0.34172730  0.16228278  1
  I  I52  1  0.89801161  0.65827444  0.66228610  1
  I  I53  1  0.39801182  0.84172615  0.66228449  1
  I  I54  1  0.10198867  0.34172679  0.66228547  1
  I  I55  1  0.60198850  0.15827380  0.66228686  1
  I  I56  1  0.60198867  0.84172782  0.16228332  1
  I  I57  1  0.10198839  0.65827381  0.16228741  1
  I  I58  1  0.15827393  0.60198833  0.83771555  1
  I  I59  1  0.65827364  0.10198900  0.33771564  1
  I  I60  1  0.34172602  0.89801186  0.33771226  1
  I  I61  1  0.84172472  0.39801187  0.83771146  1
  I  I62  1  0.89801824  0.15857056  0.58752440  1
  I  I63  1  0.39801751  0.65857111  0.08752391  1
