# generated using pymatgen
data_NaBr
_symmetry_space_group_name_H-M   'P 1'
_cell_length_a   7.21209107
_cell_length_b   4.15657858
_cell_length_c   7.54831057
_cell_angle_alpha   89.99998209
_cell_angle_beta   90.00001872
_cell_angle_gamma   89.99998888
_symmetry_Int_Tables_number   1
_chemical_formula_structural   NaBr
_chemical_formula_sum   'Na4 Br4'
_cell_volume   226.28041056
_cell_formula_units_Z   4
loop_
 _symmetry_equiv_pos_site_id
 _symmetry_equiv_pos_as_xyz
  1  'x, y, z'
loop_
 _atom_site_type_symbol
 _atom_site_label
 _atom_site_symmetry_multiplicity
 _atom_site_fract_x
 _atom_site_fract_y
 _atom_site_fract_z
 _atom_site_occupancy
  Na  Na0  1  0.08358103  0.74560497  0.80603394  1
  Na  Na1  1  0.58358087  0.25439403  0.80603646  1
  Na  Na2  1  0.91641916  0.25439466  0.30603568  1
  Na  Na3  1  0.41641915  0.74560634  0.30603324  1
  Br  Br4  1  0.24842027  0.24638425  0.05641918  1
  Br  Br5  1  0.74841954  0.75362262  0.05641964  1
  Br  Br6  1  0.75158037  0.75361607  0.55641849  1
  Br  Br7  1  0.25157962  0.24637705  0.55641806  1
