# generated using pymatgen
data_KI
_symmetry_space_group_name_H-M   'P 1'
_cell_length_a   7.19273921
_cell_length_b   10.13292997
_cell_length_c   5.09320129
_cell_angle_alpha   89.99980506
_cell_angle_beta   90.00671382
_cell_angle_gamma   89.99989564
_symmetry_Int_Tables_number   1
_chemical_formula_structural   KI
_chemical_formula_sum   'K4 I4'
_cell_volume   371.21044941
_cell_formula_units_Z   4
loop_
 _symmetry_equiv_pos_site_id
 _symmetry_equiv_pos_as_xyz
  1  'x, y, z'
loop_
 _atom_site_type_symbol
 _atom_site_label
 _atom_site_symmetry_multiplicity
 _atom_site_fract_x
 _atom_site_fract_y
 _atom_site_fract_z
 _atom_site_occupancy
  K  K0  1  -0.00022763  0.87182557  0.24984878  1
  K  K1  1  0.00022742  0.37182579  0.25015067  1
  K  K2  1  0.50022658  0.12817421  0.74984938  1
  K  K3  1  0.49977363  0.62817442  0.75015118  1
  I  I4  1  0.50011066  0.37789901  0.25058459  1
  I  I5  1  0.49988953  0.87789885  0.24941529  1
  I  I6  1  -0.00010834  0.62210116  0.75058483  1
  I  I7  1  0.00010816  0.12210099  0.74941529  1
