# generated using pymatgen
data_LiBr
_symmetry_space_group_name_H-M   'P 1'
_cell_length_a   4.16853408
_cell_length_b   4.16899428
_cell_length_c   10.20186241
_cell_angle_alpha   90.00242052
_cell_angle_beta   89.99471404
_cell_angle_gamma   119.99491852
_symmetry_Int_Tables_number   1
_chemical_formula_structural   LiBr
_chemical_formula_sum   'Li3 Br3'
_cell_volume   153.54899665
_cell_formula_units_Z   3
loop_
 _symmetry_equiv_pos_site_id
 _symmetry_equiv_pos_as_xyz
  1  'x, y, z'
loop_
 _atom_site_type_symbol
 _atom_site_label
 _atom_site_symmetry_multiplicity
 _atom_site_fract_x
 _atom_site_fract_y
 _atom_site_fract_z
 _atom_site_occupancy
  Li  Li0  1  0.67160872  0.00179230  0.53981597  1
  Li  Li1  1  0.99838901  0.66977360  0.87317295  1
  Li  Li2  1  0.33013629  0.32856922  0.20647688  1
  Br  Br3  1  0.33253554  0.33660929  0.95651917  1
  Br  Br4  1  0.66316731  -0.00423080  0.28986656  1
  Br  Br5  1  0.00416313  0.66748639  0.62320746  1
