# generated using pymatgen
data_KI
_symmetry_space_group_name_H-M   'P 1'
_cell_length_a   5.08538937
_cell_length_b   5.08538936
_cell_length_c   14.32426960
_cell_angle_alpha   89.99999979
_cell_angle_beta   89.99999982
_cell_angle_gamma   89.99999997
_symmetry_Int_Tables_number   1
_chemical_formula_structural   KI
_chemical_formula_sum   'K4 I4'
_cell_volume   370.44258586
_cell_formula_units_Z   4
loop_
 _symmetry_equiv_pos_site_id
 _symmetry_equiv_pos_as_xyz
  1  'x, y, z'
loop_
 _atom_site_type_symbol
 _atom_site_label
 _atom_site_symmetry_multiplicity
 _atom_site_fract_x
 _atom_site_fract_y
 _atom_site_fract_z
 _atom_site_occupancy
  K  K0  1  -0.00360585  0.49942830  0.04721888  1
  K  K1  1  0.49942829  0.00360584  0.79721889  1
  K  K2  1  0.00360587  0.50057174  0.54721890  1
  K  K3  1  0.50057169  -0.00360588  0.29721889  1
  I  I4  1  0.50309198  0.00147934  0.54697899  1
  I  I5  1  0.00147930  0.49690801  0.29697900  1
  I  I6  1  0.49690803  -0.00147931  0.04697901  1
  I  I7  1  -0.00147932  0.50309195  0.79697899  1
