# generated using pymatgen
data_KI
_symmetry_space_group_name_H-M   'P 1'
_cell_length_a   8.68808228
_cell_length_b   8.69910475
_cell_length_c   8.69548742
_cell_angle_alpha   90.00000085
_cell_angle_beta   89.99999959
_cell_angle_gamma   90.00000005
_symmetry_Int_Tables_number   1
_chemical_formula_structural   KI
_chemical_formula_sum   'K8 I8'
_cell_volume   657.19222500
_cell_formula_units_Z   8
loop_
 _symmetry_equiv_pos_site_id
 _symmetry_equiv_pos_as_xyz
  1  'x, y, z'
loop_
 _atom_site_type_symbol
 _atom_site_label
 _atom_site_symmetry_multiplicity
 _atom_site_fract_x
 _atom_site_fract_y
 _atom_site_fract_z
 _atom_site_occupancy
  K  K0  1  -0.00025802  -0.00004718  0.50036683  1
  K  K1  1  -0.00025795  0.00004716  0.99963319  1
  K  K2  1  0.50025800  -0.00004717  0.49963322  1
  K  K3  1  0.49974198  0.50004720  0.49963319  1
  K  K4  1  0.00025799  0.49995279  0.99963322  1
  K  K5  1  0.49974198  0.49995283  0.00036683  1
  K  K6  1  0.50025806  0.00004719  0.00036677  1
  K  K7  1  0.00025799  0.50004718  0.50036676  1
  I  I8  1  0.75006270  0.75056178  0.24983424  1
  I  I9  1  0.75006269  0.24943825  0.25016576  1
  I  I10  1  0.74993731  0.75056175  0.75016580  1
  I  I11  1  0.25006272  0.74943822  0.75016574  1
  I  I12  1  0.24993727  0.25056176  0.25016578  1
  I  I13  1  0.25006270  0.25056176  0.74983422  1
  I  I14  1  0.74993729  0.24943823  0.74983424  1
  I  I15  1  0.24993729  0.74943824  0.24983421  1
