# generated using pymatgen
data_LiBr
_symmetry_space_group_name_H-M   'P 1'
_cell_length_a   8.32890177
_cell_length_b   8.18067519
_cell_length_c   6.70902110
_cell_angle_alpha   90.00000861
_cell_angle_beta   90.00001157
_cell_angle_gamma   89.99999403
_symmetry_Int_Tables_number   1
_chemical_formula_structural   LiBr
_chemical_formula_sum   'Li8 Br8'
_cell_volume   457.12613044
_cell_formula_units_Z   8
loop_
 _symmetry_equiv_pos_site_id
 _symmetry_equiv_pos_as_xyz
  1  'x, y, z'
loop_
 _atom_site_type_symbol
 _atom_site_label
 _atom_site_symmetry_multiplicity
 _atom_site_fract_x
 _atom_site_fract_y
 _atom_site_fract_z
 _atom_site_occupancy
  Li  Li0  1  0.14039903  0.63853966  0.14460881  1
  Li  Li1  1  0.64039894  0.86146099  0.14460699  1
  Li  Li2  1  0.85960080  0.63853901  0.64460493  1
  Li  Li3  1  0.85960024  0.36146120  0.14460479  1
  Li  Li4  1  0.14039927  0.36145997  0.64460836  1
  Li  Li5  1  0.35960069  0.13853913  0.14460464  1
  Li  Li6  1  0.35960126  0.86146060  0.64460488  1
  Li  Li7  1  0.64039943  0.13853910  0.64460625  1
  Br  Br8  1  0.84633748  0.66082506  0.02287029  1
  Br  Br9  1  0.34633764  0.83917534  0.02287013  1
  Br  Br10  1  0.15366257  0.66082439  0.52287047  1
  Br  Br11  1  0.15366237  0.33917560  0.02287038  1
  Br  Br12  1  0.84633776  0.33917510  0.52287017  1
  Br  Br13  1  0.65366222  0.16082503  0.02286987  1
  Br  Br14  1  0.65366278  0.83917530  0.52286998  1
  Br  Br15  1  0.34633751  0.16082450  0.52286986  1
