# generated using pymatgen
data_LiBr
_symmetry_space_group_name_H-M   'P 1'
_cell_length_a   14.04642414
_cell_length_b   14.04643793
_cell_length_c   4.97918032
_cell_angle_alpha   89.99965802
_cell_angle_beta   90.00019858
_cell_angle_gamma   89.99984287
_symmetry_Int_Tables_number   1
_chemical_formula_structural   LiBr
_chemical_formula_sum   'Li16 Br16'
_cell_volume   982.40335583
_cell_formula_units_Z   16
loop_
 _symmetry_equiv_pos_site_id
 _symmetry_equiv_pos_as_xyz
  1  'x, y, z'
loop_
 _atom_site_type_symbol
 _atom_site_label
 _atom_site_symmetry_multiplicity
 _atom_site_fract_x
 _atom_site_fract_y
 _atom_site_fract_z
 _atom_site_occupancy
  Li  Li0  1  0.07547246  0.08163221  0.74984834  1
  Li  Li1  1  0.41836755  0.57547261  0.75015171  1
  Li  Li2  1  0.07547181  0.58163213  0.50015104  1
  Li  Li3  1  0.92452815  0.91836768  0.74984650  1
  Li  Li4  1  0.58163265  0.42452708  0.75015509  1
  Li  Li5  1  0.91836619  0.57547240  -0.00015735  1
  Li  Li6  1  0.08163109  0.42452708  -0.00015475  1
  Li  Li7  1  0.41836770  0.07547249  0.49984775  1
  Li  Li8  1  0.58163333  0.92452709  0.49985031  1
  Li  Li9  1  0.42452738  0.41836788  0.24984616  1
  Li  Li10  1  0.08163279  0.92452723  0.25015547  1
  Li  Li11  1  0.57547232  0.58163250  0.24984805  1
  Li  Li12  1  0.91836830  0.07547167  0.25015205  1
  Li  Li13  1  0.57547235  0.08163223  0.00015588  1
  Li  Li14  1  0.42452783  0.91836791  0.00015464  1
  Li  Li15  1  0.92452690  0.41836765  0.50014873  1
  Br  Br16  1  0.39130805  0.60079659  0.24992705  1
  Br  Br17  1  0.89920506  0.89130826  0.25007298  1
  Br  Br18  1  0.39130836  0.10079651  0.00007393  1
  Br  Br19  1  0.60869189  0.39920378  0.24992825  1
  Br  Br20  1  0.10079670  0.10869232  0.25007299  1
  Br  Br21  1  0.39920464  0.89130837  0.49992947  1
  Br  Br22  1  0.60079675  0.10869212  0.49992969  1
  Br  Br23  1  0.89920285  0.39130838  -0.00007523  1
  Br  Br24  1  0.10079496  0.60869192  -0.00007492  1
  Br  Br25  1  0.10869298  0.89920373  0.74992838  1
  Br  Br26  1  0.60079661  0.60869180  0.75007292  1
  Br  Br27  1  0.89130846  0.10079613  0.74992748  1
  Br  Br28  1  0.39920411  0.39130813  0.75007275  1
  Br  Br29  1  0.89130647  0.60079678  0.50006919  1
  Br  Br30  1  0.10869069  0.39920354  0.50007048  1
  Br  Br31  1  0.60869262  0.89920382  0.00007494  1
