# generated using pymatgen
data_KI
_symmetry_space_group_name_H-M   'P 1'
_cell_length_a   14.80621381
_cell_length_b   14.80621270
_cell_length_c   9.40841448
_cell_angle_alpha   90.00001813
_cell_angle_beta   89.99998537
_cell_angle_gamma   120.00051152
_symmetry_Int_Tables_number   1
_chemical_formula_structural   KI
_chemical_formula_sum   'K18 I18'
_cell_volume   1786.21131236
_cell_formula_units_Z   18
loop_
 _symmetry_equiv_pos_site_id
 _symmetry_equiv_pos_as_xyz
  1  'x, y, z'
loop_
 _atom_site_type_symbol
 _atom_site_label
 _atom_site_symmetry_multiplicity
 _atom_site_fract_x
 _atom_site_fract_y
 _atom_site_fract_z
 _atom_site_occupancy
  K  K0  1  0.52761824  0.61163651  0.78856777  1
  K  K1  1  0.52761869  0.91598230  0.28856865  1
  K  K2  1  0.72168597  0.13904940  0.95522520  1
  K  K3  1  0.41736357  0.27831410  0.95522762  1
  K  K4  1  0.05503803  0.24930492  0.12189797  1
  K  K5  1  0.38836309  0.91598124  0.78856927  1
  K  K6  1  0.41736323  0.13904946  0.45522710  1
  K  K7  1  0.72168590  0.58263643  0.45522764  1
  K  K8  1  0.08401771  0.47238132  0.78856866  1
  K  K9  1  0.08401876  0.61163691  0.28856925  1
  K  K10  1  0.86095059  0.27831404  0.45522522  1
  K  K11  1  0.86095055  0.58263677  0.95522710  1
  K  K12  1  0.75069511  0.80573310  0.12189716  1
  K  K13  1  0.75069508  0.94496196  0.62189796  1
  K  K14  1  0.38836350  0.47238176  0.28856775  1
  K  K15  1  0.05503818  0.80573253  0.62189586  1
  K  K16  1  0.19426747  0.94496183  0.12189587  1
  K  K17  1  0.19426691  0.24930489  0.62189714  1
  I  I18  1  0.23741822  0.18470260  0.26341629  1
  I  I19  1  0.23741840  0.05271529  0.76341583  1
  I  I20  1  0.14862650  0.42923128  0.43006741  1
  I  I21  1  0.28060499  0.85137419  0.43006786  1
  I  I22  1  0.48195370  0.38604048  0.59675435  1
  I  I23  1  0.81529674  0.05271520  0.26341643  1
  I  I24  1  0.28060482  0.42923111  0.93006732  1
  I  I25  1  0.14862580  0.71939501  0.93006784  1
  I  I26  1  0.94728470  0.76258160  0.26341586  1
  I  I27  1  0.94728481  0.18470326  0.76341646  1
  I  I28  1  0.57076871  0.85137349  0.93006740  1
  I  I29  1  0.57076889  0.71939518  0.43006734  1
  I  I30  1  0.61395934  0.09591373  0.59675383  1
  I  I31  1  0.61395952  0.51804630  0.09675437  1
  I  I32  1  0.81529740  0.76258178  0.76341631  1
  I  I33  1  0.48195476  0.09591413  0.09675400  1
  I  I34  1  0.90408587  0.51804524  0.59675401  1
  I  I35  1  0.90408627  0.38604067  0.09675384  1
