# generated using pymatgen
data_KI
_symmetry_space_group_name_H-M   'P 1'
_cell_length_a   7.18719915
_cell_length_b   7.19531216
_cell_length_c   7.19297968
_cell_angle_alpha   90.00000311
_cell_angle_beta   89.99994885
_cell_angle_gamma   89.99998240
_symmetry_Int_Tables_number   1
_chemical_formula_structural   KI
_chemical_formula_sum   'K4 I4'
_cell_volume   371.97876865
_cell_formula_units_Z   4
loop_
 _symmetry_equiv_pos_site_id
 _symmetry_equiv_pos_as_xyz
  1  'x, y, z'
loop_
 _atom_site_type_symbol
 _atom_site_label
 _atom_site_symmetry_multiplicity
 _atom_site_fract_x
 _atom_site_fract_y
 _atom_site_fract_z
 _atom_site_occupancy
  K  K0  1  -0.00207574  0.75029985  0.18582729  1
  K  K1  1  0.49792435  0.24969927  0.18582710  1
  K  K2  1  0.00207590  0.24970003  0.68582797  1
  K  K3  1  0.50207580  0.75030085  0.68582788  1
  I  I4  1  -0.00120964  0.25018416  0.18603219  1
  I  I5  1  0.49879041  0.74981495  0.18603189  1
  I  I6  1  0.00120949  0.74981572  0.68603313  1
  I  I7  1  0.50120943  0.25018516  0.68603315  1
