# generated using pymatgen
data_KI
_symmetry_space_group_name_H-M   'P 1'
_cell_length_a   8.92871184
_cell_length_b   8.77585993
_cell_length_c   5.10390685
_cell_angle_alpha   89.99990971
_cell_angle_beta   89.99998198
_cell_angle_gamma   89.99997942
_symmetry_Int_Tables_number   1
_chemical_formula_structural   KI
_chemical_formula_sum   'K4 I4'
_cell_volume   399.92746384
_cell_formula_units_Z   4
loop_
 _symmetry_equiv_pos_site_id
 _symmetry_equiv_pos_as_xyz
  1  'x, y, z'
loop_
 _atom_site_type_symbol
 _atom_site_label
 _atom_site_symmetry_multiplicity
 _atom_site_fract_x
 _atom_site_fract_y
 _atom_site_fract_z
 _atom_site_occupancy
  K  K0  1  0.51247496  0.05157248  0.90117433  1
  K  K1  1  0.48752463  0.55157253  0.59882679  1
  K  K2  1  0.98752520  0.94842759  0.40117309  1
  K  K3  1  0.01247549  0.44842744  0.09882571  1
  I  I4  1  0.78659589  0.75581133  0.88624402  1
  I  I5  1  0.21340382  0.25581099  0.61375640  1
  I  I6  1  0.71340394  0.24418894  0.38624343  1
  I  I7  1  0.28659608  0.74418870  0.11375623  1
