# generated using pymatgen
data_LiCl
_symmetry_space_group_name_H-M   'P 1'
_cell_length_a   3.82094454
_cell_length_b   3.82086266
_cell_length_c   8.89470606
_cell_angle_alpha   90.00814975
_cell_angle_beta   90.01774578
_cell_angle_gamma   119.99875224
_symmetry_Int_Tables_number   1
_chemical_formula_structural   LiCl
_chemical_formula_sum   'Li3 Cl3'
_cell_volume   112.46044757
_cell_formula_units_Z   3
loop_
 _symmetry_equiv_pos_site_id
 _symmetry_equiv_pos_as_xyz
  1  'x, y, z'
loop_
 _atom_site_type_symbol
 _atom_site_label
 _atom_site_symmetry_multiplicity
 _atom_site_fract_x
 _atom_site_fract_y
 _atom_site_fract_z
 _atom_site_occupancy
  Li  Li0  1  0.86151279  0.65869667  0.11244472  1
  Li  Li1  1  0.34124845  0.20244644  0.77888389  1
  Li  Li2  1  0.79743942  0.13901994  0.44575081  1
  Cl  Cl3  1  0.46726391  0.46999029  0.33817571  1
  Cl  Cl4  1  0.53026564  -0.00253824  0.00481925  1
  Cl  Cl5  1  0.00226980  0.53238491  0.67153051  1
