# generated using pymatgen
data_LiI
_symmetry_space_group_name_H-M   'P 1'
_cell_length_a   12.57954409
_cell_length_b   12.57954173
_cell_length_c   8.67487360
_cell_angle_alpha   90.00125084
_cell_angle_beta   89.99883908
_cell_angle_gamma   119.99989030
_symmetry_Int_Tables_number   1
_chemical_formula_structural   LiI
_chemical_formula_sum   'Li18 I18'
_cell_volume   1188.84158720
_cell_formula_units_Z   18
loop_
 _symmetry_equiv_pos_site_id
 _symmetry_equiv_pos_as_xyz
  1  'x, y, z'
loop_
 _atom_site_type_symbol
 _atom_site_label
 _atom_site_symmetry_multiplicity
 _atom_site_fract_x
 _atom_site_fract_y
 _atom_site_fract_z
 _atom_site_occupancy
  Li  Li0  1  0.07049872  0.53398611  0.19101707  1
  Li  Li1  1  0.07049286  0.53651186  0.69102124  1
  Li  Li2  1  0.79935353  0.59604483  0.35740113  1
  Li  Li3  1  0.79671172  0.20066069  0.35740268  1
  Li  Li4  1  0.13255966  0.86981120  0.52387191  1
  Li  Li5  1  0.46600347  0.53649267  0.19102107  1
  Li  Li6  1  0.79669752  0.59605198  0.85740946  1
  Li  Li7  1  0.79934157  0.20329041  0.85740256  1
  Li  Li8  1  0.46348643  0.92950549  0.19102009  1
  Li  Li9  1  0.46349557  0.53399569  0.69102625  1
  Li  Li10  1  0.40395691  0.20064698  0.85740152  1
  Li  Li11  1  0.40394993  0.20330534  0.35740933  1
  Li  Li12  1  0.13018036  0.26274503  0.52388812  1
  Li  Li13  1  0.13018950  0.86744020  0.02387031  1
  Li  Li14  1  0.46601551  0.92950922  0.69101025  1
  Li  Li15  1  0.13256251  0.26274003  0.02387482  1
  Li  Li16  1  0.73725840  0.86743636  0.52387322  1
  Li  Li17  1  0.73724938  0.86981392  0.02388391  1
  I  I18  1  0.54582028  0.09422127  0.43094532  1
  I  I19  1  0.54581376  0.45160491  -0.06907334  1
  I  I20  1  0.23920325  0.12086516  0.59732651  1
  I  I21  1  0.88165690  0.76078814  0.59732907  1
  I  I22  1  0.57258917  0.78502426  0.76404528  1
  I  I23  1  0.90579375  0.45161091  0.43095469  1
  I  I24  1  0.88166239  0.12086755  0.09730919  1
  I  I25  1  0.23921360  0.11834348  0.09733004  1
  I  I26  1  0.54839497  0.45418622  0.43093082  1
  I  I27  1  0.54839060  0.09420882  -0.06904456  1
  I  I28  1  0.87913420  0.76079816  0.09732641  1
  I  I29  1  0.87912978  0.11833485  0.59730933  1
  I  I30  1  0.21499330  0.78757048  0.76402184  1
  I  I31  1  0.21497871  0.42740794  0.26404814  1
  I  I32  1  0.90578224  0.45418180  -0.06905063  1
  I  I33  1  0.57257786  0.78756815  0.26404996  1
  I  I34  1  0.21242886  0.42741883  0.76405019  1
  I  I35  1  0.21243279  0.78501106  0.26402403  1
