# generated using pymatgen
data_KI
_symmetry_space_group_name_H-M   'P 1'
_cell_length_a   9.33570996
_cell_length_b   9.91830501
_cell_length_c   8.68332874
_cell_angle_alpha   89.99998640
_cell_angle_beta   89.99989225
_cell_angle_gamma   90.00054221
_symmetry_Int_Tables_number   1
_chemical_formula_structural   KI
_chemical_formula_sum   'K8 I8'
_cell_volume   804.02777871
_cell_formula_units_Z   8
loop_
 _symmetry_equiv_pos_site_id
 _symmetry_equiv_pos_as_xyz
  1  'x, y, z'
loop_
 _atom_site_type_symbol
 _atom_site_label
 _atom_site_symmetry_multiplicity
 _atom_site_fract_x
 _atom_site_fract_y
 _atom_site_fract_z
 _atom_site_occupancy
  K  K0  1  0.31725732  0.33808049  0.05603337  1
  K  K1  1  0.31725755  0.16191869  0.55603487  1
  K  K2  1  0.81725772  0.16191987  0.94396670  1
  K  K3  1  0.18274326  0.66191831  0.55603497  1
  K  K4  1  0.68274256  0.83808111  0.44396521  1
  K  K5  1  0.18274228  0.83808050  0.05603353  1
  K  K6  1  0.81725709  0.33808146  0.44396499  1
  K  K7  1  0.68274237  0.66191954  0.94396653  1
  I  I8  1  0.92942313  0.62868220  0.25074484  1
  I  I9  1  0.92942149  0.87131681  0.75074470  1
  I  I10  1  0.42942268  0.87131764  0.74925525  1
  I  I11  1  0.57057797  0.37131714  0.75074439  1
  I  I12  1  0.07057851  0.12868348  0.24925552  1
  I  I13  1  0.57057728  0.12868224  0.25074473  1
  I  I14  1  0.42942198  0.62868282  0.24925528  1
  I  I15  1  0.07057682  0.37131769  0.74925512  1
