# generated using pymatgen
data_NaI
_symmetry_space_group_name_H-M   'P 1'
_cell_length_a   9.19949026
_cell_length_b   4.65803234
_cell_length_c   6.51023197
_cell_angle_alpha   90.00156836
_cell_angle_beta   89.99917351
_cell_angle_gamma   90.00048412
_symmetry_Int_Tables_number   1
_chemical_formula_structural   NaI
_chemical_formula_sum   'Na4 I4'
_cell_volume   278.97335598
_cell_formula_units_Z   4
loop_
 _symmetry_equiv_pos_site_id
 _symmetry_equiv_pos_as_xyz
  1  'x, y, z'
loop_
 _atom_site_type_symbol
 _atom_site_label
 _atom_site_symmetry_multiplicity
 _atom_site_fract_x
 _atom_site_fract_y
 _atom_site_fract_z
 _atom_site_occupancy
  Na  Na0  1  0.62477511  0.24981930  0.40641282  1
  Na  Na1  1  0.12477593  0.25018852  0.40641280  1
  Na  Na2  1  0.37522449  0.75018121  0.90649665  1
  Na  Na3  1  0.87522358  0.74981107  0.90649643  1
  I  I4  1  0.12562725  0.25075144  0.90639026  1
  I  I5  1  0.62562726  0.24924649  0.90639047  1
  I  I6  1  0.87437295  0.74924818  0.40642303  1
  I  I7  1  0.37437343  0.75075378  0.40642307  1
