# generated using pymatgen
data_NaI
_symmetry_space_group_name_H-M   'P 1'
_cell_length_a   13.02947487
_cell_length_b   6.52628323
_cell_length_c   6.53568804
_cell_angle_alpha   90.00112732
_cell_angle_beta   89.99985257
_cell_angle_gamma   90.00000382
_symmetry_Int_Tables_number   1
_chemical_formula_structural   NaI
_chemical_formula_sum   'Na8 I8'
_cell_volume   555.75598015
_cell_formula_units_Z   8
loop_
 _symmetry_equiv_pos_site_id
 _symmetry_equiv_pos_as_xyz
  1  'x, y, z'
loop_
 _atom_site_type_symbol
 _atom_site_label
 _atom_site_symmetry_multiplicity
 _atom_site_fract_x
 _atom_site_fract_y
 _atom_site_fract_z
 _atom_site_occupancy
  Na  Na0  1  0.62521866  -0.00269207  0.74601333  1
  Na  Na1  1  0.62522584  0.50269198  0.24603293  1
  Na  Na2  1  0.12522574  0.00270256  0.75399824  1
  Na  Na3  1  0.87476720  0.50270301  0.74602226  1
  Na  Na4  1  0.37477414  0.49730808  0.75396691  1
  Na  Na5  1  0.87477428  -0.00270256  0.24600169  1
  Na  Na6  1  0.12523283  0.49729696  0.25397797  1
  Na  Na7  1  0.37478135  0.00269203  0.25398666  1
  I  I8  1  0.62481653  0.49872041  0.74714808  1
  I  I9  1  0.62482013  0.00127905  0.24712777  1
  I  I10  1  0.12482012  0.50128548  0.75286131  1
  I  I11  1  0.87517635  0.00128526  0.74711815  1
  I  I12  1  0.37517986  -0.00127902  0.75287221  1
  I  I13  1  0.87517989  0.49871454  0.24713882  1
  I  I14  1  0.12482365  -0.00128527  0.25288180  1
  I  I15  1  0.37518343  0.50127957  0.25285186  1
