# generated using pymatgen
data_LiBr
_symmetry_space_group_name_H-M   'P 1'
_cell_length_a   10.79706851
_cell_length_b   10.79705652
_cell_length_c   10.76370587
_cell_angle_alpha   89.98213407
_cell_angle_beta   90.01743437
_cell_angle_gamma   120.01556961
_symmetry_Int_Tables_number   1
_chemical_formula_structural   LiBr
_chemical_formula_sum   'Li18 Br18'
_cell_volume   1086.51443242
_cell_formula_units_Z   18
loop_
 _symmetry_equiv_pos_site_id
 _symmetry_equiv_pos_as_xyz
  1  'x, y, z'
loop_
 _atom_site_type_symbol
 _atom_site_label
 _atom_site_symmetry_multiplicity
 _atom_site_fract_x
 _atom_site_fract_y
 _atom_site_fract_z
 _atom_site_occupancy
  Li  Li0  1  0.41994942  0.33309647  0.27611463  1
  Li  Li1  1  0.41994562  0.08688738  0.77612696  1
  Li  Li2  1  0.00008938  0.24645955  0.44295692  1
  Li  Li3  1  0.24635991  -0.00015151  0.44299999  1
  Li  Li4  1  0.33336353  0.42014469  0.61025894  1
  Li  Li5  1  0.66696786  0.08688127  0.27615599  1
  Li  Li6  1  0.24636007  0.24647813  0.94297080  1
  Li  Li7  1  0.00015170  0.75364030  0.94300087  1
  Li  Li8  1  0.91311320  0.58005384  0.27612652  1
  Li  Li9  1  0.91311848  0.33303307  0.77615555  1
  Li  Li10  1  0.75353923  -0.00009023  0.94295716  1
  Li  Li11  1  0.75352073  0.75364010  0.44297136  1
  Li  Li12  1  0.57985736  0.91318960  0.61023362  1
  Li  Li13  1  0.57985739  0.66663921  0.11025914  1
  Li  Li14  1  0.66690297  0.58005038  0.77611425  1
  Li  Li15  1  0.33329547  0.91317836  0.11020855  1
  Li  Li16  1  0.08682228  0.66670143  0.61020827  1
  Li  Li17  1  0.08680999  0.42014297  0.11023476  1
  Br  Br18  1  0.33333692  0.89322011  0.60954805  1
  Br  Br19  1  0.33347383  0.44019182  0.10966303  1
  Br  Br20  1  0.44030644  0.33342557  0.77639726  1
  Br  Br21  1  0.89304855  0.55969575  0.77645179  1
  Br  Br22  1  0.77332956  0.77340021  0.94304961  1
  Br  Br23  1  0.10677673  0.44018120  0.60959921  1
  Br  Br24  1  0.89303829  0.33328698  0.27651691  1
  Br  Br25  1  0.44030312  0.10695335  0.27645213  1
  Br  Br26  1  0.55980875  0.66652760  0.60966268  1
  Br  Br27  1  0.55981931  0.89322204  0.10959841  1
  Br  Br28  1  0.66657303  0.55969303  0.27639658  1
  Br  Br29  1  0.66671407  0.10696248  0.77651771  1
  Br  Br30  1  0.22659127  0.99985840  0.94310228  1
  Br  Br31  1  0.22660137  0.22666957  0.44304866  1
  Br  Br32  1  0.10677936  0.66666196  0.10954896  1
  Br  Br33  1  0.77332111  -0.00001217  0.44298794  1
  Br  Br34  1  0.00001101  0.22667812  0.94298714  1
  Br  Br35  1  0.00014270  0.77340899  0.44310342  1
