# generated using pymatgen
data_LiBr
_symmetry_space_group_name_H-M   'P 1'
_cell_length_a   9.86803007
_cell_length_b   9.86609753
_cell_length_c   4.26292563
_cell_angle_alpha   89.99996468
_cell_angle_beta   89.99999288
_cell_angle_gamma   119.98781831
_symmetry_Int_Tables_number   1
_chemical_formula_structural   LiBr
_chemical_formula_sum   'Li6 Br6'
_cell_volume   359.47405691
_cell_formula_units_Z   6
loop_
 _symmetry_equiv_pos_site_id
 _symmetry_equiv_pos_as_xyz
  1  'x, y, z'
loop_
 _atom_site_type_symbol
 _atom_site_label
 _atom_site_symmetry_multiplicity
 _atom_site_fract_x
 _atom_site_fract_y
 _atom_site_fract_z
 _atom_site_occupancy
  Li  Li0  1  0.41428424  0.86721127  0.43233440  1
  Li  Li1  1  0.54788992  0.41480031  0.26244978  1
  Li  Li2  1  0.45211086  0.58520099  0.76245164  1
  Li  Li3  1  0.86688882  0.45223825  0.59799848  1
  Li  Li4  1  0.13311175  0.54776096  0.09800138  1
  Li  Li5  1  0.58571488  0.13278907  0.93233095  1
  Br  Br6  1  0.55434859  0.86479466  -0.07071226  1
  Br  Br7  1  0.68977087  0.55534096  0.75954642  1
  Br  Br8  1  0.31023009  0.44465914  0.25954906  1
  Br  Br9  1  0.86546272  0.31057817  0.09473049  1
  Br  Br10  1  0.13453689  0.68942048  0.59473220  1
  Br  Br11  1  0.44565037  0.13520573  0.42928379  1
