# generated using pymatgen
data_LiBr
_symmetry_space_group_name_H-M   'P 1'
_cell_length_a   7.80180383
_cell_length_b   7.74394322
_cell_length_c   11.03372623
_cell_angle_alpha   89.99998552
_cell_angle_beta   89.99999510
_cell_angle_gamma   89.99997529
_symmetry_Int_Tables_number   1
_chemical_formula_structural   LiBr
_chemical_formula_sum   'Li16 Br16'
_cell_volume   666.62161258
_cell_formula_units_Z   16
loop_
 _symmetry_equiv_pos_site_id
 _symmetry_equiv_pos_as_xyz
  1  'x, y, z'
loop_
 _atom_site_type_symbol
 _atom_site_label
 _atom_site_symmetry_multiplicity
 _atom_site_fract_x
 _atom_site_fract_y
 _atom_site_fract_z
 _atom_site_occupancy
  Li  Li0  1  0.25016339  0.49969985  0.96504284  1
  Li  Li1  1  0.74983601  0.50029771  0.96504028  1
  Li  Li2  1  -0.00016282  0.74970253  0.21504301  1
  Li  Li3  1  0.24983687  0.50029922  0.46504117  1
  Li  Li4  1  0.49983530  0.74970211  0.71504388  1
  Li  Li5  1  0.50016291  0.75029872  0.21504020  1
  Li  Li6  1  0.75016397  0.49970219  0.46504391  1
  Li  Li7  1  0.49983709  0.24970296  0.21504373  1
  Li  Li8  1  0.50016512  0.25029770  0.71504029  1
  Li  Li9  1  0.75016353  -0.00029898  0.96504394  1
  Li  Li10  1  0.24983669  0.00029948  0.96504110  1
  Li  Li11  1  -0.00016507  0.24970098  0.71504299  1
  Li  Li12  1  0.00016446  0.75029758  0.71504113  1
  Li  Li13  1  0.00016179  0.25029873  0.21504098  1
  Li  Li14  1  0.25016398  -0.00029611  0.46504295  1
  Li  Li15  1  0.74983649  0.00029664  0.46504056  1
  Br  Br16  1  0.24985774  0.50005283  0.71498310  1
  Br  Br17  1  0.75014254  0.49994654  0.71498283  1
  Br  Br18  1  0.00014296  0.75005327  0.96498309  1
  Br  Br19  1  0.25014239  0.49994539  0.21498294  1
  Br  Br20  1  0.50014195  0.75005385  0.46498321  1
  Br  Br21  1  0.49985694  0.74994624  0.96498279  1
  Br  Br22  1  0.74985760  0.50005419  0.21498312  1
  Br  Br23  1  0.50014274  0.25005392  0.96498311  1
  Br  Br24  1  0.49985768  0.24994651  0.46498295  1
  Br  Br25  1  0.74985759  0.00005305  0.71498301  1
  Br  Br26  1  0.25014238  -0.00005300  0.71498293  1
  Br  Br27  1  0.00014240  0.25005356  0.46498310  1
  Br  Br28  1  -0.00014174  0.74994627  0.46498296  1
  Br  Br29  1  -0.00014279  0.24994582  0.96498300  1
  Br  Br30  1  0.24985750  0.00005423  0.21498318  1
  Br  Br31  1  0.75014239  -0.00005399  0.21498298  1
