# generated using pymatgen
data_LiI
_symmetry_space_group_name_H-M   'P 1'
_cell_length_a   12.15231098
_cell_length_b   12.15012481
_cell_length_c   10.73782078
_cell_angle_alpha   90.02556885
_cell_angle_beta   89.98809689
_cell_angle_gamma   120.06455183
_symmetry_Int_Tables_number   1
_chemical_formula_structural   LiI
_chemical_formula_sum   'Li18 I18'
_cell_volume   1372.15600662
_cell_formula_units_Z   18
loop_
 _symmetry_equiv_pos_site_id
 _symmetry_equiv_pos_as_xyz
  1  'x, y, z'
loop_
 _atom_site_type_symbol
 _atom_site_label
 _atom_site_symmetry_multiplicity
 _atom_site_fract_x
 _atom_site_fract_y
 _atom_site_fract_z
 _atom_site_occupancy
  Li  Li0  1  0.65181004  0.01007563  0.50000551  1
  Li  Li1  1  0.30847385  0.98510161  0.83333287  1
  Li  Li2  1  0.34819183  -0.01007485  0.49999535  1
  Li  Li3  1  0.35826653  0.34820888  0.50004708  1
  Li  Li4  1  0.67679938  0.69165212  0.83333587  1
  Li  Li5  1  0.01025354  0.35838465  0.49989741  1
  Li  Li6  1  0.65631058  0.97458989  0.83355718  1
  Li  Li7  1  -0.01025204  0.64161594  0.50010152  1
  Li  Li8  1  0.64173380  0.65179266  0.49995262  1
  Li  Li9  1  0.34368704  0.02540823  0.16644305  1
  Li  Li10  1  0.32319795  0.30834654  0.16666492  1
  Li  Li11  1  0.02527742  0.68167028  0.83344572  1
  Li  Li12  1  0.97472029  0.31833003  0.16655408  1
  Li  Li13  1  0.69152744  0.01489883  0.16666698  1
  Li  Li14  1  0.31830974  0.34365764  0.83343365  1
  Li  Li15  1  0.68169108  0.65634272  0.16656728  1
  Li  Li16  1  0.01488115  0.32317489  0.83343127  1
  Li  Li17  1  0.98511977  0.67682562  0.16656770  1
  I  I18  1  0.13577741  0.26112742  0.64690055  1
  I  I19  1  0.54148636  0.46902353  0.68629937  1
  I  I20  1  0.86422340  0.73887333  0.35309982  1
  I  I21  1  0.12526525  0.86432003  0.64696372  1
  I  I22  1  -0.07217748  0.45847156  0.68641677  1
  I  I23  1  0.26115142  0.12528449  0.35307972  1
  I  I24  1  0.40556214  0.20822635  0.98025211  1
  I  I25  1  0.73884954  0.87471594  0.64692146  1
  I  I26  1  0.87473524  0.13567957  0.35303567  1
  I  I27  1  0.59443636  0.79177229  0.01974901  1
  I  I28  1  0.07217816  0.54152867  0.31358238  1
  I  I29  1  0.79182840  0.19753143  0.98037747  1
  I  I30  1  0.20817125  0.80246715  0.01962054  1
  I  I31  1  0.45851338  0.53097685  0.31370087  1
  I  I32  1  0.80253123  0.59446640  0.98024601  1
  I  I33  1  0.19746753  0.40553280  0.01975498  1
  I  I34  1  0.53089252  0.07218913  0.68642983  1
  I  I35  1  0.46910850  -0.07218825  0.31356967  1
