# generated using pymatgen
data_LiBr
_symmetry_space_group_name_H-M   'P 1'
_cell_length_a   6.51711200
_cell_length_b   4.33003630
_cell_length_c   7.52049397
_cell_angle_alpha   90.00000288
_cell_angle_beta   89.96530851
_cell_angle_gamma   89.99997344
_symmetry_Int_Tables_number   1
_chemical_formula_structural   LiBr
_chemical_formula_sum   'Li4 Br4'
_cell_volume   212.22327351
_cell_formula_units_Z   4
loop_
 _symmetry_equiv_pos_site_id
 _symmetry_equiv_pos_as_xyz
  1  'x, y, z'
loop_
 _atom_site_type_symbol
 _atom_site_label
 _atom_site_symmetry_multiplicity
 _atom_site_fract_x
 _atom_site_fract_y
 _atom_site_fract_z
 _atom_site_occupancy
  Li  Li0  1  0.17039817  0.75022018  0.41666811  1
  Li  Li1  1  0.82960304  0.24976221  0.58333163  1
  Li  Li2  1  0.82960225  0.75023711  0.08333126  1
  Li  Li3  1  0.17039818  0.24978080  0.91666845  1
  Br  Br4  1  0.23393427  0.25001198  0.58341622  1
  Br  Br5  1  0.76606513  0.74997258  0.41658440  1
  Br  Br6  1  0.76606451  0.25002677  0.91658454  1
  Br  Br7  1  0.23393444  0.74998837  0.08341540  1
