# generated using pymatgen
data_LiBr
_symmetry_space_group_name_H-M   'P 1'
_cell_length_a   11.04538262
_cell_length_b   11.04541063
_cell_length_c   8.20425730
_cell_angle_alpha   90.00592869
_cell_angle_beta   89.99340092
_cell_angle_gamma   119.98399998
_symmetry_Int_Tables_number   1
_chemical_formula_structural   LiBr
_chemical_formula_sum   'Li18 Br18'
_cell_volume   866.96692367
_cell_formula_units_Z   18
loop_
 _symmetry_equiv_pos_site_id
 _symmetry_equiv_pos_as_xyz
  1  'x, y, z'
loop_
 _atom_site_type_symbol
 _atom_site_label
 _atom_site_symmetry_multiplicity
 _atom_site_fract_x
 _atom_site_fract_y
 _atom_site_fract_z
 _atom_site_occupancy
  Li  Li0  1  0.79688093  0.19681716  0.27732697  1
  Li  Li1  1  0.79695430  0.59999825  0.77737563  1
  Li  Li2  1  0.13655704  0.86980377  0.44394743  1
  Li  Li3  1  0.73320368  0.86346989  0.44412243  1
  Li  Li4  1  0.46984161  0.93341009  0.61078274  1
  Li  Li5  1  0.80317750  0.60012043  0.27750536  1
  Li  Li6  1  0.73330706  0.86973343  0.94401410  1
  Li  Li7  1  0.13653169  0.26679453  0.94411786  1
  Li  Li8  1  0.40000364  0.20304591  0.27738227  1
  Li  Li9  1  0.39987792  0.19682398  0.77751218  1
  Li  Li10  1  0.13019701  0.86344071  0.94394932  1
  Li  Li11  1  0.13027329  0.26669937  0.44401420  1
  Li  Li12  1  0.06671007  0.53643205  0.61066531  1
  Li  Li13  1  0.06658969  0.53015809  0.11079160  1
  Li  Li14  1  0.80317932  0.20311482  0.77732602  1
  Li  Li15  1  0.46984647  0.53648813  0.11060692  1
  Li  Li16  1  0.46351092  0.53015111  0.61060552  1
  Li  Li17  1  0.46356985  0.93329035  0.11065681  1
  Br  Br18  1  0.24066750  0.11785346  0.02192306  1
  Br  Br19  1  0.24077885  0.12288518  0.52181553  1
  Br  Br20  1  0.21547385  0.42600247  0.18855539  1
  Br  Br21  1  0.21040413  0.78449555  0.18850799  1
  Br  Br22  1  0.54881559  0.45628531  0.35516834  1
  Br  Br23  1  0.88216048  0.12294055  0.02186975  1
  Br  Br24  1  0.21046614  0.42591844  0.68845957  1
  Br  Br25  1  0.21550310  0.78959709  0.68850683  1
  Br  Br26  1  0.87711455  0.75922148  0.02181437  1
  Br  Br27  1  0.87706228  0.11784029  0.52187180  1
  Br  Br28  1  0.57399663  0.78452756  0.68855274  1
  Br  Br29  1  0.57408535  0.78953342  0.18845492  1
  Br  Br30  1  0.54376818  0.09252257  0.35511658  1
  Br  Br31  1  0.54371266  0.45118305  0.85516769  1
  Br  Br32  1  0.88214474  0.75933312  0.52192072  1
  Br  Br33  1  0.54879223  0.09263194  0.85522380  1
  Br  Br34  1  0.90736647  0.45120565  0.35522600  1
  Br  Br35  1  0.90747529  0.45623080  0.85511626  1
