# generated using pymatgen
data_LiBr
_symmetry_space_group_name_H-M   'P 1'
_cell_length_a   4.19259703
_cell_length_b   7.26490479
_cell_length_c   6.71675253
_cell_angle_alpha   90.00027176
_cell_angle_beta   90.19203728
_cell_angle_gamma   90.00007144
_symmetry_Int_Tables_number   1
_chemical_formula_structural   LiBr
_chemical_formula_sum   'Li4 Br4'
_cell_volume   204.58319579
_cell_formula_units_Z   4
loop_
 _symmetry_equiv_pos_site_id
 _symmetry_equiv_pos_as_xyz
  1  'x, y, z'
loop_
 _atom_site_type_symbol
 _atom_site_label
 _atom_site_symmetry_multiplicity
 _atom_site_fract_x
 _atom_site_fract_y
 _atom_site_fract_z
 _atom_site_occupancy
  Li  Li0  1  0.36443850  0.83054899  0.13895860  1
  Li  Li1  1  0.86442359  0.33054843  0.13895320  1
  Li  Li2  1  0.36442229  0.16944803  0.63895088  1
  Li  Li3  1  0.86444907  0.66945478  0.63895392  1
  Br  Br4  1  0.36403984  0.16400601  0.01942810  1
  Br  Br5  1  0.86403154  0.66400364  0.01943628  1
  Br  Br6  1  0.36404010  0.83599463  0.51943532  1
  Br  Br7  1  0.86403375  0.33599549  0.51942981  1
