# generated using pymatgen
data_NaI
_symmetry_space_group_name_H-M   'P 1'
_cell_length_a   7.89169611
_cell_length_b   7.74884185
_cell_length_c   9.11374726
_cell_angle_alpha   89.99959350
_cell_angle_beta   89.99998279
_cell_angle_gamma   90.00002453
_symmetry_Int_Tables_number   1
_chemical_formula_structural   NaI
_chemical_formula_sum   'Na8 I8'
_cell_volume   557.31936207
_cell_formula_units_Z   8
loop_
 _symmetry_equiv_pos_site_id
 _symmetry_equiv_pos_as_xyz
  1  'x, y, z'
loop_
 _atom_site_type_symbol
 _atom_site_label
 _atom_site_symmetry_multiplicity
 _atom_site_fract_x
 _atom_site_fract_y
 _atom_site_fract_z
 _atom_site_occupancy
  Na  Na0  1  0.24991568  0.50046600  0.87677405  1
  Na  Na1  1  0.24991246  -0.00046512  0.37678743  1
  Na  Na2  1  0.74991595  -0.00046655  0.12322606  1
  Na  Na3  1  0.25008721  0.49953554  0.37678723  1
  Na  Na4  1  0.75008763  0.00046411  0.62321246  1
  Na  Na5  1  0.25008406  0.00046530  0.87677417  1
  Na  Na6  1  0.74991268  0.50046533  0.62321239  1
  Na  Na7  1  0.75008442  0.49953489  0.12322625  1
  I  I8  1  0.41668746  0.75024081  0.12626028  1
  I  I9  1  0.41667607  0.74975902  0.62627161  1
  I  I10  1  0.91668719  0.74975835  0.87373956  1
  I  I11  1  0.08332422  0.24975856  0.62627168  1
  I  I12  1  0.58332381  0.25024103  0.37372861  1
  I  I13  1  0.08331297  0.25024149  0.12626031  1
  I  I14  1  0.91667573  0.75024185  0.37372841  1
  I  I15  1  0.58331246  0.24975940  0.87373950  1
