# generated using pymatgen
data_LiBr
_symmetry_space_group_name_H-M   'P 1'
_cell_length_a   6.60688864
_cell_length_b   3.87809244
_cell_length_c   6.46498018
_cell_angle_alpha   89.99994032
_cell_angle_beta   90.00007168
_cell_angle_gamma   89.99995441
_symmetry_Int_Tables_number   1
_chemical_formula_structural   LiBr
_chemical_formula_sum   'Li4 Br4'
_cell_volume   165.64652951
_cell_formula_units_Z   4
loop_
 _symmetry_equiv_pos_site_id
 _symmetry_equiv_pos_as_xyz
  1  'x, y, z'
loop_
 _atom_site_type_symbol
 _atom_site_label
 _atom_site_symmetry_multiplicity
 _atom_site_fract_x
 _atom_site_fract_y
 _atom_site_fract_z
 _atom_site_occupancy
  Li  Li0  1  0.25016326  0.24897088  0.26459662  1
  Li  Li1  1  0.75015864  0.75103646  0.26459581  1
  Li  Li2  1  0.74984326  0.75103207  0.76459235  1
  Li  Li3  1  0.24983935  0.24896694  0.76459911  1
  Br  Br4  1  0.58196211  0.25039886  0.01360683  1
  Br  Br5  1  0.08196162  0.74959687  0.01361101  1
  Br  Br6  1  0.41803543  0.74959992  0.51360721  1
  Br  Br7  1  0.91803634  0.25039801  0.51360978  1
