# generated using pymatgen
data_NaBr
_symmetry_space_group_name_H-M   'P 1'
_cell_length_a   4.27129060
_cell_length_b   6.04286605
_cell_length_c   8.49130401
_cell_angle_alpha   89.99999474
_cell_angle_beta   90.00001632
_cell_angle_gamma   89.99998132
_symmetry_Int_Tables_number   1
_chemical_formula_structural   NaBr
_chemical_formula_sum   'Na4 Br4'
_cell_volume   219.16766329
_cell_formula_units_Z   4
loop_
 _symmetry_equiv_pos_site_id
 _symmetry_equiv_pos_as_xyz
  1  'x, y, z'
loop_
 _atom_site_type_symbol
 _atom_site_label
 _atom_site_symmetry_multiplicity
 _atom_site_fract_x
 _atom_site_fract_y
 _atom_site_fract_z
 _atom_site_occupancy
  Na  Na0  1  0.25003139  0.49964489  0.12637989  1
  Na  Na1  1  0.74996872  -0.00035548  0.37362000  1
  Na  Na2  1  0.24996914  0.50035501  0.62638016  1
  Na  Na3  1  0.75003088  0.00035507  0.87361985  1
  Br  Br4  1  0.75007188  0.49998730  0.87573765  1
  Br  Br5  1  0.24992808  -0.00001242  0.62426248  1
  Br  Br6  1  0.74992799  0.50001288  0.37573771  1
  Br  Br7  1  0.25007192  0.00001275  0.12426226  1
