# generated using pymatgen
data_LiBr
_symmetry_space_group_name_H-M   'P 1'
_cell_length_a   6.65149332
_cell_length_b   6.64620072
_cell_length_c   12.80747398
_cell_angle_alpha   89.99994767
_cell_angle_beta   89.99997981
_cell_angle_gamma   120.19794130
_symmetry_Int_Tables_number   1
_chemical_formula_structural   LiBr
_chemical_formula_sum   'Li6 Br6'
_cell_volume   489.34710944
_cell_formula_units_Z   6
loop_
 _symmetry_equiv_pos_site_id
 _symmetry_equiv_pos_as_xyz
  1  'x, y, z'
loop_
 _atom_site_type_symbol
 _atom_site_label
 _atom_site_symmetry_multiplicity
 _atom_site_fract_x
 _atom_site_fract_y
 _atom_site_fract_z
 _atom_site_occupancy
  Li  Li0  1  0.40311386  0.80882264  0.98484446  1
  Li  Li1  1  0.59429143  0.40390608  0.81827566  1
  Li  Li2  1  0.40571032  0.59609518  0.31827603  1
  Li  Li3  1  0.80900451  0.40554695  0.15176102  1
  Li  Li4  1  0.19099513  0.59445430  0.65176107  1
  Li  Li5  1  0.59688566  0.19117641  0.48484505  1
  Br  Br6  1  0.38474950  0.76357266  0.48552826  1
  Br  Br7  1  0.62064943  0.38483717  0.31888956  1
  Br  Br8  1  0.37935177  0.61516395  0.81889045  1
  Br  Br9  1  0.76369481  0.38029671  0.65223730  1
  Br  Br10  1  0.23630408  0.61970191  0.15223644  1
  Br  Br11  1  0.61524950  0.23642604  -0.01447106  1
