# generated using pymatgen
data_NaBr
_symmetry_space_group_name_H-M   'P 1'
_cell_length_a   7.25114020
_cell_length_b   4.20215029
_cell_length_c   7.23292938
_cell_angle_alpha   90.00041505
_cell_angle_beta   89.99986429
_cell_angle_gamma   89.99922454
_symmetry_Int_Tables_number   1
_chemical_formula_structural   NaBr
_chemical_formula_sum   'Na4 Br4'
_cell_volume   220.39011319
_cell_formula_units_Z   4
loop_
 _symmetry_equiv_pos_site_id
 _symmetry_equiv_pos_as_xyz
  1  'x, y, z'
loop_
 _atom_site_type_symbol
 _atom_site_label
 _atom_site_symmetry_multiplicity
 _atom_site_fract_x
 _atom_site_fract_y
 _atom_site_fract_z
 _atom_site_occupancy
  Na  Na0  1  0.49984951  0.00056677  0.95371831  1
  Na  Na1  1  0.99984958  0.49943361  0.95371883  1
  Na  Na2  1  0.50015030  -0.00056802  0.45371763  1
  Na  Na3  1  0.00015037  0.50056908  0.45371849  1
  Br  Br4  1  0.16638947  -0.00026332  0.70352177  1
  Br  Br5  1  0.66638952  0.50026247  0.70352152  1
  Br  Br6  1  0.83361076  0.00026416  0.20352143  1
  Br  Br7  1  0.33361049  0.49973526  0.20352120  1
