# generated using pymatgen
data_LiI
_symmetry_space_group_name_H-M   'P 1'
_cell_length_a   12.36732783
_cell_length_b   10.44874377
_cell_length_c   9.52181065
_cell_angle_alpha   89.99995078
_cell_angle_beta   90.00004303
_cell_angle_gamma   90.13797628
_symmetry_Int_Tables_number   1
_chemical_formula_structural   LiI
_chemical_formula_sum   'Li16 I16'
_cell_volume   1230.43374671
_cell_formula_units_Z   16
loop_
 _symmetry_equiv_pos_site_id
 _symmetry_equiv_pos_as_xyz
  1  'x, y, z'
loop_
 _atom_site_type_symbol
 _atom_site_label
 _atom_site_symmetry_multiplicity
 _atom_site_fract_x
 _atom_site_fract_y
 _atom_site_fract_z
 _atom_site_occupancy
  Li  Li0  1  0.11027464  0.24990053  0.77684944  1
  Li  Li1  1  0.88972699  0.75009771  0.77684898  1
  Li  Li2  1  0.13955611  0.49954541  0.02619631  1
  Li  Li3  1  0.38972378  0.75009874  0.27684763  1
  Li  Li4  1  0.63955509  0.49954791  0.52620732  1
  Li  Li5  1  0.36044305  0.00045356  0.02619404  1
  Li  Li6  1  0.61027611  0.24990170  0.27684776  1
  Li  Li7  1  0.63955711  -0.00045179  0.02619292  1
  Li  Li8  1  0.36044602  0.50045272  0.52620777  1
  Li  Li9  1  0.61027368  0.74990128  0.77684502  1
  Li  Li10  1  0.38972559  0.25009971  0.77684710  1
  Li  Li11  1  0.13955477  -0.00045320  0.52620999  1
  Li  Li12  1  0.86044609  0.00045246  0.52620784  1
  Li  Li13  1  0.86044409  0.50045305  0.02619465  1
  Li  Li14  1  0.11027774  0.74989593  0.27684991  1
  Li  Li15  1  0.88972290  0.25010289  0.27685110  1
  I  I16  1  0.75042190  -0.04049964  0.77656715  1
  I  I17  1  0.24957784  0.04049962  0.77656744  1
  I  I18  1  0.50111287  0.20913716  0.02573096  1
  I  I19  1  0.74957618  0.04049886  0.27656715  1
  I  I20  1  0.00110544  0.20914350  0.52573719  1
  I  I21  1  -0.00111458  0.29086025  0.02573144  1
  I  I22  1  0.25042353  -0.04049742  0.27656664  1
  I  I23  1  0.00111384  0.70913835  0.02573240  1
  I  I24  1  -0.00110544  0.79085497  0.52573615  1
  I  I25  1  0.25042130  0.45949989  0.77656894  1
  I  I26  1  0.74957845  0.54050147  0.77656969  1
  I  I27  1  0.50110821  0.70914063  0.52573509  1
  I  I28  1  0.49889058  0.29086025  0.52573507  1
  I  I29  1  0.49888615  0.79086461  0.02573004  1
  I  I30  1  0.75042462  0.45950319  0.27656783  1
  I  I31  1  0.24957534  0.54049570  0.27656801  1
