# generated using pymatgen
data_LiBr
_symmetry_space_group_name_H-M   'P 1'
_cell_length_a   3.89752612
_cell_length_b   3.89753145
_cell_length_c   11.00008089
_cell_angle_alpha   89.99717687
_cell_angle_beta   90.00225250
_cell_angle_gamma   90.00123906
_symmetry_Int_Tables_number   1
_chemical_formula_structural   LiBr
_chemical_formula_sum   'Li4 Br4'
_cell_volume   167.09926516
_cell_formula_units_Z   4
loop_
 _symmetry_equiv_pos_site_id
 _symmetry_equiv_pos_as_xyz
  1  'x, y, z'
loop_
 _atom_site_type_symbol
 _atom_site_label
 _atom_site_symmetry_multiplicity
 _atom_site_fract_x
 _atom_site_fract_y
 _atom_site_fract_z
 _atom_site_occupancy
  Li  Li0  1  0.50109032  0.00152372  0.68341916  1
  Li  Li1  1  0.00151557  0.49890928  0.43341779  1
  Li  Li2  1  0.49891137  -0.00152162  0.18344790  1
  Li  Li3  1  -0.00152498  0.50109246  0.93345260  1
  Br  Br4  1  0.49990904  -0.00074739  0.93207581  1
  Br  Br5  1  -0.00075304  0.50009765  0.68207829  1
  Br  Br6  1  0.50009279  0.00075086  0.43204393  1
  Br  Br7  1  0.00075894  0.49989504  0.18204541  1
