# generated using pymatgen
data_NaI
_symmetry_space_group_name_H-M   'P 1'
_cell_length_a   11.49675143
_cell_length_b   5.45445264
_cell_length_c   9.48041207
_cell_angle_alpha   89.99431202
_cell_angle_beta   145.41202762
_cell_angle_gamma   90.00467244
_symmetry_Int_Tables_number   1
_chemical_formula_structural   NaI
_chemical_formula_sum   'Na4 I4'
_cell_volume   337.48167050
_cell_formula_units_Z   4
loop_
 _symmetry_equiv_pos_site_id
 _symmetry_equiv_pos_as_xyz
  1  'x, y, z'
loop_
 _atom_site_type_symbol
 _atom_site_label
 _atom_site_symmetry_multiplicity
 _atom_site_fract_x
 _atom_site_fract_y
 _atom_site_fract_z
 _atom_site_occupancy
  Na  Na0  1  0.75154399  0.49123330  0.42011791  1
  Na  Na1  1  0.24846521  0.99119330  0.07989499  1
  Na  Na2  1  0.24845586  0.50876667  0.57988202  1
  Na  Na3  1  0.75153506  0.00880666  0.92010523  1
  I  I4  1  0.25063779  0.00817385  0.41541043  1
  I  I5  1  0.74934527  0.50814470  0.08457456  1
  I  I6  1  0.74936217  0.99182619  0.58458956  1
  I  I7  1  0.25065466  0.49185532  0.91542531  1
