# generated using pymatgen
data_LiI
_symmetry_space_group_name_H-M   'P 1'
_cell_length_a   8.44397279
_cell_length_b   7.57335028
_cell_length_c   7.50610114
_cell_angle_alpha   89.99997746
_cell_angle_beta   90.00176243
_cell_angle_gamma   90.00102474
_symmetry_Int_Tables_number   1
_chemical_formula_structural   LiI
_chemical_formula_sum   'Li8 I8'
_cell_volume   480.00889024
_cell_formula_units_Z   8
loop_
 _symmetry_equiv_pos_site_id
 _symmetry_equiv_pos_as_xyz
  1  'x, y, z'
loop_
 _atom_site_type_symbol
 _atom_site_label
 _atom_site_symmetry_multiplicity
 _atom_site_fract_x
 _atom_site_fract_y
 _atom_site_fract_z
 _atom_site_occupancy
  Li  Li0  1  0.84197944  0.31140789  -0.01391719  1
  Li  Li1  1  0.84198272  0.18859693  0.48607475  1
  Li  Li2  1  0.34197790  0.18859095  0.01392463  1
  Li  Li3  1  0.65802352  0.68858482  0.48606504  1
  Li  Li4  1  0.15801749  0.81140224  0.51392491  1
  Li  Li5  1  0.65802191  0.81140939  -0.01392527  1
  Li  Li6  1  0.34197535  0.31141393  0.51393296  1
  Li  Li7  1  0.15802071  0.68859258  0.01391814  1
  I  I8  1  0.63211537  0.38610356  0.70021926  1
  I  I9  1  0.63211575  0.11389535  0.20021078  1
  I  I10  1  0.13210831  0.11389340  0.29978564  1
  I  I11  1  0.86788262  0.61389707  0.20021850  1
  I  I12  1  0.36788413  0.88610762  0.79978958  1
  I  I13  1  0.86789249  0.88610834  0.70021521  1
  I  I14  1  0.13211707  0.38610233  0.79978089  1
  I  I15  1  0.36788525  0.61389361  0.29978218  1
