# generated using pymatgen
data_NaI
_symmetry_space_group_name_H-M   'P 1'
_cell_length_a   13.42134180
_cell_length_b   13.42134643
_cell_length_c   8.57569769
_cell_angle_alpha   90.00386923
_cell_angle_beta   89.99612025
_cell_angle_gamma   120.00501848
_symmetry_Int_Tables_number   1
_chemical_formula_structural   NaI
_chemical_formula_sum   'Na18 I18'
_cell_volume   1337.73519010
_cell_formula_units_Z   18
loop_
 _symmetry_equiv_pos_site_id
 _symmetry_equiv_pos_as_xyz
  1  'x, y, z'
loop_
 _atom_site_type_symbol
 _atom_site_label
 _atom_site_symmetry_multiplicity
 _atom_site_fract_x
 _atom_site_fract_y
 _atom_site_fract_z
 _atom_site_occupancy
  Na  Na0  1  0.46862491  0.39204447  0.16957979  1
  Na  Na1  1  0.46856597  0.07663514  0.66977598  1
  Na  Na2  1  -0.05871074  0.19804051  0.33624816  1
  Na  Na3  1  0.25686777  0.05866957  0.33618591  1
  Na  Na4  1  0.27466334  0.40979939  0.50285258  1
  Na  Na5  1  0.60799726  0.07646697  0.16952017  1
  Na  Na6  1  0.25669904  0.19810144  0.83644169  1
  Na  Na7  1  -0.05867008  0.74313316  0.83618592  1
  Na  Na8  1  0.92336593  0.53143513  0.16977549  1
  Na  Na9  1  0.92353413  0.39200294  0.66951997  1
  Na  Na10  1  0.80195839  0.05871035  0.83624823  1
  Na  Na11  1  0.80189753  0.74330002  0.33644135  1
  Na  Na12  1  0.59003225  0.86476861  0.50310878  1
  Na  Na13  1  0.59019953  0.72533627  0.00285293  1
  Na  Na14  1  0.60795576  0.53137450  0.66958054  1
  Na  Na15  1  0.27462226  0.86470813  0.00291378  1
  Na  Na16  1  0.13529198  0.72537771  0.50291387  1
  Na  Na17  1  0.13523151  0.40996729  0.00310888  1
  I  I18  1  0.72175406  0.56244514  0.02834525  1
  I  I19  1  0.72159071  0.15929317  0.52853196  1
  I  I20  1  0.77088778  0.94491192  0.19501252  1
  I  I21  1  0.17389452  0.22887616  0.19502850  1
  I  I22  1  0.10445691  0.49277232  0.36169563  1
  I  I23  1  0.43779060  0.15943947  0.02836130  1
  I  I24  1  0.17404063  0.94507669  0.69519857  1
  I  I25  1  0.77112280  0.82610522  0.69502830  1
  I  I26  1  0.84070756  0.27840985  0.02853236  1
  I  I27  1  0.84056116  0.56220961  0.52836190  1
  I  I28  1  0.05508743  0.22911147  0.69501208  1
  I  I29  1  0.05492367  0.82595998  0.19519788  1
  I  I30  1  0.50737332  0.61174334  0.36186438  1
  I  I31  1  0.50722797  0.89554363  0.86169609  1
  I  I32  1  0.43755473  0.27824564  0.52834517  1
  I  I33  1  0.10422151  0.61157883  0.86167884  1
  I  I34  1  0.38842109  0.89577943  0.36167874  1
  I  I35  1  0.38825684  0.49262654  0.86186412  1
