# generated using pymatgen
data_NaI
_symmetry_space_group_name_H-M   'P 1'
_cell_length_a   4.66767709
_cell_length_b   4.59579133
_cell_length_c   13.00999699
_cell_angle_alpha   90.00174021
_cell_angle_beta   89.97179419
_cell_angle_gamma   90.00047983
_symmetry_Int_Tables_number   1
_chemical_formula_structural   NaI
_chemical_formula_sum   'Na4 I4'
_cell_volume   279.08612710
_cell_formula_units_Z   4
loop_
 _symmetry_equiv_pos_site_id
 _symmetry_equiv_pos_as_xyz
  1  'x, y, z'
loop_
 _atom_site_type_symbol
 _atom_site_label
 _atom_site_symmetry_multiplicity
 _atom_site_fract_x
 _atom_site_fract_y
 _atom_site_fract_z
 _atom_site_occupancy
  Na  Na0  1  0.75261994  0.75263296  0.37485568  1
  Na  Na1  1  0.24738677  0.25263425  0.12512208  1
  Na  Na2  1  0.24738021  0.24736704  0.62514432  1
  Na  Na3  1  0.75261308  0.74736569  0.87487792  1
  I  I4  1  0.74886603  0.75300954  0.12489967  1
  I  I5  1  0.25110779  0.25300986  0.37509165  1
  I  I6  1  0.25113381  0.24699047  0.87510033  1
  I  I7  1  0.74889237  0.74699019  0.62490834  1
