# generated using pymatgen
data_KI
_symmetry_space_group_name_H-M   'P 1'
_cell_length_a   7.54814147
_cell_length_b   7.54814618
_cell_length_c   6.73902078
_cell_angle_alpha   90.00016643
_cell_angle_beta   89.99987811
_cell_angle_gamma   89.99999778
_symmetry_Int_Tables_number   1
_chemical_formula_structural   KI
_chemical_formula_sum   'K4 I4'
_cell_volume   383.95217200
_cell_formula_units_Z   4
loop_
 _symmetry_equiv_pos_site_id
 _symmetry_equiv_pos_as_xyz
  1  'x, y, z'
loop_
 _atom_site_type_symbol
 _atom_site_label
 _atom_site_symmetry_multiplicity
 _atom_site_fract_x
 _atom_site_fract_y
 _atom_site_fract_z
 _atom_site_occupancy
  K  K0  1  0.70784022  0.21038600  0.30607742  1
  K  K1  1  0.21038386  0.29215875  0.55607735  1
  K  K2  1  0.29216055  0.78961517  0.80607714  1
  K  K3  1  0.78961250  0.70783751  0.05607761  1
  I  I4  1  0.62642111  0.12910243  0.80609616  1
  I  I5  1  0.12910256  0.37358023  0.05609625  1
  I  I6  1  0.37358027  0.87089887  0.30609622  1
  I  I7  1  0.87089893  0.62642104  0.55609656  1
