# generated using pymatgen
data_LiBr
_symmetry_space_group_name_H-M   'P 1'
_cell_length_a   11.92138673
_cell_length_b   11.92139082
_cell_length_c   7.29931169
_cell_angle_alpha   89.99907042
_cell_angle_beta   90.00095971
_cell_angle_gamma   120.00857306
_symmetry_Int_Tables_number   1
_chemical_formula_structural   LiBr
_chemical_formula_sum   'Li18 Br18'
_cell_volume   898.31513964
_cell_formula_units_Z   18
loop_
 _symmetry_equiv_pos_site_id
 _symmetry_equiv_pos_as_xyz
  1  'x, y, z'
loop_
 _atom_site_type_symbol
 _atom_site_label
 _atom_site_symmetry_multiplicity
 _atom_site_fract_x
 _atom_site_fract_y
 _atom_site_fract_z
 _atom_site_occupancy
  Li  Li0  1  0.50151892  0.87553428  0.46699175  1
  Li  Li1  1  0.50147058  0.62600182  -0.03305336  1
  Li  Li2  1  0.45779606  0.16530982  0.63374308  1
  Li  Li3  1  0.70752223  0.54211206  0.63385115  1
  Li  Li4  1  0.79122963  -0.04086396  0.80046606  1
  Li  Li5  1  0.12452554  0.62597889  0.46707895  1
  Li  Li6  1  0.70750989  0.16531484  0.13368274  1
  Li  Li7  1  0.45788799  0.29247658  0.13385137  1
  Li  Li8  1  0.37399861  0.49853005  0.46694656  1
  Li  Li9  1  0.37402038  0.87547330  -0.03292025  1
  Li  Li10  1  0.83469144  0.54220411  0.13374203  1
  Li  Li11  1  0.83468491  0.29248972  0.63368177  1
  Li  Li12  1  0.04080453  0.83200803  0.80033344  1
  Li  Li13  1  0.04086424  0.20877084  0.30046553  1
  Li  Li14  1  0.12446500  0.49848097  -0.03300933  1
  Li  Li15  1  0.79115606  0.83199603  0.30039154  1
  Li  Li16  1  0.16800670  0.20884439  0.80038912  1
  Li  Li17  1  0.16799314  -0.04080340  0.30033263  1
  Br  Br18  1  0.62613839  0.50081290  0.96804723  1
  Br  Br19  1  0.62615479  0.12538465  0.46791087  1
  Br  Br20  1  0.83256624  0.04050556  0.13467405  1
  Br  Br21  1  0.20800293  0.16749484  0.13460794  1
  Br  Br22  1  0.16578655  0.45864570  0.30125175  1
  Br  Br23  1  0.49917101  0.12532147  0.96794545  1
  Br  Br24  1  0.20791125  0.04049813  0.63458671  1
  Br  Br25  1  0.83250511  0.79199693  0.63460982  1
  Br  Br26  1  0.87461437  0.37384440  0.96791029  1
  Br  Br27  1  0.87467775  0.50082830  0.46794476  1
  Br  Br28  1  -0.04050536  0.16743373  0.63467368  1
  Br  Br29  1  -0.04049784  0.79208904  0.13458750  1
  Br  Br30  1  0.54128487  0.70716238  0.30122124  1
  Br  Br31  1  0.54135409  0.83421339  0.80125294  1
  Br  Br32  1  0.49918647  0.37386124  0.46804737  1
  Br  Br33  1  0.16582283  0.70715662  0.80133181  1
  Br  Br34  1  0.29284296  0.83417661  0.30133255  1
  Br  Br35  1  0.29283771  0.45871576  0.80122070  1
