# generated using pymatgen
data_NaBr
_symmetry_space_group_name_H-M   'P 1'
_cell_length_a   8.16395135
_cell_length_b   8.16395730
_cell_length_c   7.64206306
_cell_angle_alpha   89.93462750
_cell_angle_beta   89.93496855
_cell_angle_gamma   89.99958702
_symmetry_Int_Tables_number   1
_chemical_formula_structural   NaBr
_chemical_formula_sum   'Na8 Br8'
_cell_volume   509.34399188
_cell_formula_units_Z   8
loop_
 _symmetry_equiv_pos_site_id
 _symmetry_equiv_pos_as_xyz
  1  'x, y, z'
loop_
 _atom_site_type_symbol
 _atom_site_label
 _atom_site_symmetry_multiplicity
 _atom_site_fract_x
 _atom_site_fract_y
 _atom_site_fract_z
 _atom_site_occupancy
  Na  Na0  1  0.65172748  0.84206782  0.01284430  1
  Na  Na1  1  0.65842559  0.84794800  0.51291109  1
  Na  Na2  1  0.84794430  0.34205699  0.01271166  1
  Na  Na3  1  0.34206620  0.15172614  0.51284504  1
  Na  Na4  1  0.15171411  0.65841583  0.01304793  1
  Na  Na5  1  0.34794825  0.15842632  0.01291171  1
  Na  Na6  1  0.84205522  0.34794393  0.51271204  1
  Na  Na7  1  0.15841485  0.65171281  0.51304796  1
  Br  Br8  1  0.88389676  0.70087173  0.76091466  1
  Br  Br9  1  0.79889034  0.61615084  0.26080056  1
  Br  Br10  1  0.61618130  0.20088286  0.76102455  1
  Br  Br11  1  0.20087297  0.38389694  0.26091306  1
  Br  Br12  1  0.38392558  0.79890256  0.76069684  1
  Br  Br13  1  0.11615031  0.29889009  0.76079996  1
  Br  Br14  1  0.70088391  0.11618149  0.26102391  1
  Br  Br15  1  0.29890282  0.88392564  0.26069665  1
