# generated using pymatgen
data_LiBr
_symmetry_space_group_name_H-M   'P 1'
_cell_length_a   10.37737168
_cell_length_b   4.53749156
_cell_length_c   4.56312112
_cell_angle_alpha   90.00002433
_cell_angle_beta   89.99951907
_cell_angle_gamma   90.00001524
_symmetry_Int_Tables_number   1
_chemical_formula_structural   LiBr
_chemical_formula_sum   'Li4 Br4'
_cell_volume   214.86476303
_cell_formula_units_Z   4
loop_
 _symmetry_equiv_pos_site_id
 _symmetry_equiv_pos_as_xyz
  1  'x, y, z'
loop_
 _atom_site_type_symbol
 _atom_site_label
 _atom_site_symmetry_multiplicity
 _atom_site_fract_x
 _atom_site_fract_y
 _atom_site_fract_z
 _atom_site_occupancy
  Li  Li0  1  0.24948051  0.74900196  0.31740396  1
  Li  Li1  1  0.74950559  0.75099207  0.31740875  1
  Li  Li2  1  0.75049229  0.25099219  0.81740754  1
  Li  Li3  1  0.25052156  0.24900196  0.81740285  1
  Br  Br4  1  0.86235724  0.25040456  0.31791118  1
  Br  Br5  1  0.36236347  0.24960141  0.31789930  1
  Br  Br6  1  0.13763872  0.74960139  0.81789818  1
  Br  Br7  1  0.63764062  0.75040446  0.81791013  1
