# generated using pymatgen
data_NaI
_symmetry_space_group_name_H-M   'P 1'
_cell_length_a   7.78290057
_cell_length_b   8.24036319
_cell_length_c   8.95874055
_cell_angle_alpha   90.00050618
_cell_angle_beta   89.99994057
_cell_angle_gamma   90.00000020
_symmetry_Int_Tables_number   1
_chemical_formula_structural   NaI
_chemical_formula_sum   'Na8 I8'
_cell_volume   574.55921563
_cell_formula_units_Z   8
loop_
 _symmetry_equiv_pos_site_id
 _symmetry_equiv_pos_as_xyz
  1  'x, y, z'
loop_
 _atom_site_type_symbol
 _atom_site_label
 _atom_site_symmetry_multiplicity
 _atom_site_fract_x
 _atom_site_fract_y
 _atom_site_fract_z
 _atom_site_occupancy
  Na  Na0  1  0.08292746  0.74936446  0.87436997  1
  Na  Na1  1  0.08292110  0.75064026  0.37437442  1
  Na  Na2  1  0.58292758  0.75063553  0.12563211  1
  Na  Na3  1  0.41707878  0.25064024  0.37437233  1
  Na  Na4  1  0.91707888  0.24935973  0.62562557  1
  Na  Na5  1  0.41707243  0.24936447  0.87436789  1
  Na  Na6  1  0.58292123  0.74935975  0.62562766  1
  Na  Na7  1  0.91707253  0.25063555  0.12563002  1
  I  I8  1  0.25052059  0.49638174  0.62409331  1
  I  I9  1  0.25051831  0.00361404  0.12408867  1
  I  I10  1  0.75052061  0.00361830  0.37590652  1
  I  I11  1  0.24948167  0.50361405  0.12408884  1
  I  I12  1  0.74948169  0.99638596  0.87591134  1
  I  I13  1  0.24947939  0.99638171  0.62409349  1
  I  I14  1  0.75051833  0.49638595  0.87591116  1
  I  I15  1  0.74947940  0.50361826  0.37590669  1
