# generated using pymatgen
data_LiBr
_symmetry_space_group_name_H-M   'P 1'
_cell_length_a   3.94702364
_cell_length_b   3.94723863
_cell_length_c   10.59711954
_cell_angle_alpha   89.99989351
_cell_angle_beta   90.00003228
_cell_angle_gamma   90.00434379
_symmetry_Int_Tables_number   1
_chemical_formula_structural   LiBr
_chemical_formula_sum   'Li4 Br4'
_cell_volume   165.10147075
_cell_formula_units_Z   4
loop_
 _symmetry_equiv_pos_site_id
 _symmetry_equiv_pos_as_xyz
  1  'x, y, z'
loop_
 _atom_site_type_symbol
 _atom_site_label
 _atom_site_symmetry_multiplicity
 _atom_site_fract_x
 _atom_site_fract_y
 _atom_site_fract_z
 _atom_site_occupancy
  Li  Li0  1  0.00021706  0.49930532  0.86788284  1
  Li  Li1  1  0.49899681  -0.00060533  0.61777662  1
  Li  Li2  1  -0.00020988  0.50069440  0.36788245  1
  Li  Li3  1  0.50099450  0.00060400  0.11777631  1
  Br  Br4  1  -0.00023488  0.49998780  0.61790460  1
  Br  Br5  1  0.50001561  0.00016150  0.36795341  1
  Br  Br6  1  0.00023455  0.50001308  0.11790479  1
  Br  Br7  1  0.49998622  -0.00016076  0.86795357  1
