# generated using pymatgen
data_LiI
_symmetry_space_group_name_H-M   'P 1'
_cell_length_a   12.82371102
_cell_length_b   12.82371187
_cell_length_c   14.98785960
_cell_angle_alpha   89.99999149
_cell_angle_beta   89.99999330
_cell_angle_gamma   120.00272952
_symmetry_Int_Tables_number   1
_chemical_formula_structural   LiI
_chemical_formula_sum   'Li24 I24'
_cell_volume   2134.44897033
_cell_formula_units_Z   24
loop_
 _symmetry_equiv_pos_site_id
 _symmetry_equiv_pos_as_xyz
  1  'x, y, z'
loop_
 _atom_site_type_symbol
 _atom_site_label
 _atom_site_symmetry_multiplicity
 _atom_site_fract_x
 _atom_site_fract_y
 _atom_site_fract_z
 _atom_site_occupancy
  Li  Li0  1  0.65803980  0.11931714  0.32229165  1
  Li  Li1  1  0.53872810  0.65803966  0.32229430  1
  Li  Li2  1  0.53872427  0.88068265  0.82229384  1
  Li  Li3  1  0.53872434  0.88068271  0.17770600  1
  Li  Li4  1  0.65803977  0.53872822  0.17770549  1
  Li  Li5  1  0.34196030  0.46127183  0.17770553  1
  Li  Li6  1  0.88068283  0.34196022  0.17770841  1
  Li  Li7  1  0.46127574  0.11931738  0.17770616  1
  Li  Li8  1  0.11931723  0.65803984  0.17770849  1
  Li  Li9  1  0.88068252  0.53872414  0.32229376  1
  Li  Li10  1  0.34196026  0.88068279  0.32229165  1
  Li  Li11  1  0.46127178  0.34196031  0.32229477  1
  Li  Li12  1  0.11931742  0.46127585  0.32229385  1
  Li  Li13  1  0.65803970  0.53872809  0.82229436  1
  Li  Li14  1  0.11931723  0.65803978  0.82229165  1
  Li  Li15  1  0.46127572  0.11931739  0.82229402  1
  Li  Li16  1  0.34196025  0.46127175  0.82229452  1
  Li  Li17  1  0.88068283  0.34196023  0.82229159  1
  Li  Li18  1  0.11931738  0.46127577  0.67770602  1
  Li  Li19  1  0.65803979  0.11931720  0.67770843  1
  Li  Li20  1  0.53872810  0.65803968  0.67770560  1
  Li  Li21  1  0.88068258  0.53872424  0.67770606  1
  Li  Li22  1  0.34196022  0.88068286  0.67770837  1
  Li  Li23  1  0.46127184  0.34196029  0.67770554  1
  I  I24  1  0.55234164  0.87388700  0.63696478  1
  I  I25  1  0.67845631  0.55234466  0.63696571  1
  I  I26  1  0.67845564  0.12611526  0.13696357  1
  I  I27  1  0.67845554  0.12611518  0.86303645  1
  I  I28  1  0.55234460  0.67845630  0.86303428  1
  I  I29  1  0.44765532  0.32154362  0.86303426  1
  I  I30  1  0.12611298  0.44765834  0.86303518  1
  I  I31  1  0.32154440  0.87388477  0.86303643  1
  I  I32  1  0.87388696  0.55234158  0.86303519  1
  I  I33  1  0.12611522  0.67845562  0.63696357  1
  I  I34  1  0.44765837  0.12611303  0.63696484  1
  I  I35  1  0.32154364  0.44765533  0.63696577  1
  I  I36  1  0.87388481  0.32154448  0.63696354  1
  I  I37  1  0.55234467  0.67845639  0.13696562  1
  I  I38  1  0.87388706  0.55234164  0.13696467  1
  I  I39  1  0.32154448  0.87388485  0.13696360  1
  I  I40  1  0.44765543  0.32154370  0.13696597  1
  I  I41  1  0.12611306  0.44765848  0.13696475  1
  I  I42  1  0.87388483  0.32154437  0.36303644  1
  I  I43  1  0.55234168  0.87388692  0.36303514  1
  I  I44  1  0.67845633  0.55234467  0.36303417  1
  I  I45  1  0.12611508  0.67845552  0.36303650  1
  I  I46  1  0.44765833  0.12611290  0.36303529  1
  I  I47  1  0.32154359  0.44765539  0.36303425  1
