# generated using pymatgen
data_LiI
_symmetry_space_group_name_H-M   'P 1'
_cell_length_a   7.51308343
_cell_length_b   7.63308522
_cell_length_c   4.78825379
_cell_angle_alpha   89.99988247
_cell_angle_beta   89.99993399
_cell_angle_gamma   89.99988403
_symmetry_Int_Tables_number   1
_chemical_formula_structural   LiI
_chemical_formula_sum   'Li4 I4'
_cell_volume   274.59680747
_cell_formula_units_Z   4
loop_
 _symmetry_equiv_pos_site_id
 _symmetry_equiv_pos_as_xyz
  1  'x, y, z'
loop_
 _atom_site_type_symbol
 _atom_site_label
 _atom_site_symmetry_multiplicity
 _atom_site_fract_x
 _atom_site_fract_y
 _atom_site_fract_z
 _atom_site_occupancy
  Li  Li0  1  0.14116169  0.59735130  0.25993257  1
  Li  Li1  1  0.64116408  0.90264892  0.25993622  1
  Li  Li2  1  0.85883833  0.40264873  0.75993722  1
  Li  Li3  1  0.35883590  0.09735105  0.75993291  1
  I  I4  1  0.26842851  -0.06435702  0.26009804  1
  I  I5  1  0.76842760  0.56435606  0.26010068  1
  I  I6  1  0.73157150  0.06435701  0.76009948  1
  I  I7  1  0.23157239  0.43564395  0.76009752  1
