# generated using pymatgen
data_LiBr
_symmetry_space_group_name_H-M   'P 1'
_cell_length_a   11.09981524
_cell_length_b   11.09981573
_cell_length_c   9.53054301
_cell_angle_alpha   90.01318365
_cell_angle_beta   89.98690546
_cell_angle_gamma   120.01444120
_symmetry_Int_Tables_number   1
_chemical_formula_structural   LiBr
_chemical_formula_sum   'Li18 Br18'
_cell_volume   1016.75557953
_cell_formula_units_Z   18
loop_
 _symmetry_equiv_pos_site_id
 _symmetry_equiv_pos_as_xyz
  1  'x, y, z'
loop_
 _atom_site_type_symbol
 _atom_site_label
 _atom_site_symmetry_multiplicity
 _atom_site_fract_x
 _atom_site_fract_y
 _atom_site_fract_z
 _atom_site_occupancy
  Li  Li0  1  0.24242064  -0.00249829  0.22155443  1
  Li  Li1  1  0.24240253  0.24490932  0.72150766  1
  Li  Li2  1  0.33583128  0.42424685  0.38822379  1
  Li  Li3  1  0.08840191  0.66414602  0.38818011  1
  Li  Li4  1  0.66918886  0.57826611  0.55484320  1
  Li  Li5  1  0.00252094  0.24493235  0.22150856  1
  Li  Li6  1  0.08842357  0.42426482  0.88817043  1
  Li  Li7  1  0.33585442  0.91159817  0.88817740  1
  Li  Li8  1  0.75509013  0.75759800  0.22150426  1
  Li  Li9  1  0.75506880  -0.00252073  0.72151295  1
  Li  Li10  1  0.57575373  0.66416800  0.88822007  1
  Li  Li11  1  0.57573438  0.91157491  0.38817343  1
  Li  Li12  1  0.42175715  0.09093110  0.55483848  1
  Li  Li13  1  0.42173491  0.33081270  0.05484658  1
  Li  Li14  1  0.00249753  0.75757881  0.72155801  1
  Li  Li15  1  0.66916360  0.09091228  0.05488943  1
  Li  Li16  1  0.90908820  0.33083546  0.55488718  1
  Li  Li17  1  0.90906841  0.57824198  0.05484255  1
  Br  Br18  1  0.78661017  0.78450057  0.72347788  1
  Br  Br19  1  0.78656619  0.00209778  0.22341586  1
  Br  Br20  1  0.54883323  0.88005490  0.89014516  1
  Br  Br21  1  0.33118115  0.45109512  0.89017140  1
  Br  Br22  1  0.88223631  0.33548189  0.05683566  1
  Br  Br23  1  0.21557095  0.00214902  0.72350344  1
  Br  Br24  1  0.33123851  0.88010290  0.39008139  1
  Br  Br25  1  0.54890407  0.66881671  0.39017074  1
  Br  Br26  1  -0.00209506  0.21343520  0.72341488  1
  Br  Br27  1  -0.00215231  0.78442909  0.22350593  1
  Br  Br28  1  0.11994188  0.45116678  0.39014329  1
  Br  Br29  1  0.11989997  0.66876495  0.89008459  1
  Br  Br30  1  0.66457079  0.54676788  0.05674882  1
  Br  Br31  1  0.66451512  0.11776243  0.55683832  1
  Br  Br32  1  0.21550059  0.21338900  0.22347933  1
  Br  Br33  1  0.88216857  0.54672252  0.55681256  1
  Br  Br34  1  0.45327478  0.11783359  0.05681086  1
  Br  Br35  1  0.45323408  0.33543182  0.55675031  1
