# generated using pymatgen
data_KI
_symmetry_space_group_name_H-M   'P 1'
_cell_length_a   9.84857767
_cell_length_b   9.84808711
_cell_length_c   5.00333856
_cell_angle_alpha   90.00008038
_cell_angle_beta   89.99995052
_cell_angle_gamma   89.99728883
_symmetry_Int_Tables_number   1
_chemical_formula_structural   KI
_chemical_formula_sum   'K4 I4'
_cell_volume   485.27205987
_cell_formula_units_Z   4
loop_
 _symmetry_equiv_pos_site_id
 _symmetry_equiv_pos_as_xyz
  1  'x, y, z'
loop_
 _atom_site_type_symbol
 _atom_site_label
 _atom_site_symmetry_multiplicity
 _atom_site_fract_x
 _atom_site_fract_y
 _atom_site_fract_z
 _atom_site_occupancy
  K  K0  1  0.83696079  0.66298857  0.55175183  1
  K  K1  1  0.66283508  0.16317628  0.80265148  1
  K  K2  1  0.16303939  0.33701171  0.05175340  1
  K  K3  1  0.33716482  0.83682348  0.30265265  1
  I  I4  1  0.83565893  0.33551996  0.30135749  1
  I  I5  1  0.33572291  0.16454484  0.55066994  1
  I  I6  1  0.16434101  0.66447991  0.80135824  1
  I  I7  1  0.66427707  0.83545525  0.05067021  1
