# generated using pymatgen
data_NaBr
_symmetry_space_group_name_H-M   'P 1'
_cell_length_a   8.52380901
_cell_length_b   4.27652501
_cell_length_c   6.02638253
_cell_angle_alpha   90.00071147
_cell_angle_beta   89.99860817
_cell_angle_gamma   89.99991107
_symmetry_Int_Tables_number   1
_chemical_formula_structural   NaBr
_chemical_formula_sum   'Na4 Br4'
_cell_volume   219.67539802
_cell_formula_units_Z   4
loop_
 _symmetry_equiv_pos_site_id
 _symmetry_equiv_pos_as_xyz
  1  'x, y, z'
loop_
 _atom_site_type_symbol
 _atom_site_label
 _atom_site_symmetry_multiplicity
 _atom_site_fract_x
 _atom_site_fract_y
 _atom_site_fract_z
 _atom_site_occupancy
  Na  Na0  1  0.87371684  0.74926153  0.49355403  1
  Na  Na1  1  0.37371674  0.75073895  0.49355398  1
  Na  Na2  1  0.12628312  0.25073842  -0.00644626  1
  Na  Na3  1  0.62628327  0.24926099  -0.00644619  1
  Br  Br4  1  0.87598888  0.75011606  -0.00599012  1
  Br  Br5  1  0.37598897  0.74988439  -0.00599014  1
  Br  Br6  1  0.12401112  0.24988401  0.49401019  1
  Br  Br7  1  0.62401105  0.25011565  0.49401023  1
