# generated using pymatgen
data_LiI
_symmetry_space_group_name_H-M   'P 1'
_cell_length_a   12.36556123
_cell_length_b   9.38033973
_cell_length_c   9.68915561
_cell_angle_alpha   90.00002298
_cell_angle_beta   89.99979455
_cell_angle_gamma   89.98563610
_symmetry_Int_Tables_number   1
_chemical_formula_structural   LiI
_chemical_formula_sum   'Li16 I16'
_cell_volume   1123.87579295
_cell_formula_units_Z   16
loop_
 _symmetry_equiv_pos_site_id
 _symmetry_equiv_pos_as_xyz
  1  'x, y, z'
loop_
 _atom_site_type_symbol
 _atom_site_label
 _atom_site_symmetry_multiplicity
 _atom_site_fract_x
 _atom_site_fract_y
 _atom_site_fract_z
 _atom_site_occupancy
  Li  Li0  1  0.89059726  0.75014603  0.37980712  1
  Li  Li1  1  0.10940325  0.24985370  0.37980616  1
  Li  Li2  1  0.35917231  0.00021421  0.62971324  1
  Li  Li3  1  0.60940337  0.24985384  0.87980611  1
  Li  Li4  1  0.85917478  0.00021536  0.12971392  1
  Li  Li5  1  0.14082626  0.49978466  0.62971606  1
  Li  Li6  1  0.39059839  0.75014628  0.87980737  1
  Li  Li7  1  0.85917461  0.50021573  0.62971477  1
  Li  Li8  1  0.14082601  0.99978516  0.12971507  1
  Li  Li9  1  0.39059737  0.25014574  0.37980708  1
  Li  Li10  1  0.60940375  0.74985431  0.37980592  1
  Li  Li11  1  0.35917243  0.50021520  0.12971438  1
  Li  Li12  1  0.64082543  0.49978451  0.12971634  1
  Li  Li13  1  0.64082517  0.99978523  0.62971520  1
  Li  Li14  1  0.89059657  0.25014601  0.87980702  1
  Li  Li15  1  0.10940381  0.74985396  0.87980603  1
  I  I16  1  0.24948445  -0.01960865  0.87940155  1
  I  I17  1  0.75051568  0.01960810  0.87940136  1
  I  I18  1  0.00054263  0.23037176  0.12948000  1
  I  I19  1  0.25051575  0.01960796  0.37940069  1
  I  I20  1  0.50054180  0.23037108  0.62948058  1
  I  I21  1  0.49945687  0.26962892  0.12948005  1
  I  I22  1  0.74948469  -0.01960832  0.37940185  1
  I  I23  1  0.50054227  0.73037131  0.12948089  1
  I  I24  1  0.49945726  0.76962894  0.62947989  1
  I  I25  1  0.74948404  0.48039108  0.87940222  1
  I  I26  1  0.25051635  0.51960885  0.87940124  1
  I  I27  1  0.00054282  0.73037169  0.62948052  1
  I  I28  1  0.99945695  0.26962891  0.62947993  1
  I  I29  1  0.99945740  0.76962900  0.12947954  1
  I  I30  1  0.24948419  0.48039072  0.37940234  1
  I  I31  1  0.75051607  0.51960871  0.37940197  1
