# generated using pymatgen
data_LiBr
_symmetry_space_group_name_H-M   'P 1'
_cell_length_a   10.76227815
_cell_length_b   10.76227592
_cell_length_c   8.16209014
_cell_angle_alpha   90.00336613
_cell_angle_beta   89.99662831
_cell_angle_gamma   120.00843417
_symmetry_Int_Tables_number   1
_chemical_formula_structural   LiBr
_chemical_formula_sum   'Li18 Br18'
_cell_volume   818.65974492
_cell_formula_units_Z   18
loop_
 _symmetry_equiv_pos_site_id
 _symmetry_equiv_pos_as_xyz
  1  'x, y, z'
loop_
 _atom_site_type_symbol
 _atom_site_label
 _atom_site_symmetry_multiplicity
 _atom_site_fract_x
 _atom_site_fract_y
 _atom_site_fract_z
 _atom_site_occupancy
  Li  Li0  1  0.25021267  0.86389662  0.17618495  1
  Li  Li1  1  0.25018709  0.38633569  0.67620854  1
  Li  Li2  1  0.46943717  0.41645556  0.34285257  1
  Li  Li3  1  -0.05299910  0.53051351  0.34282116  1
  Li  Li4  1  0.80281966  0.71966611  0.50948629  1
  Li  Li5  1  0.13615281  0.38633226  0.17615347  1
  Li  Li6  1  -0.05300135  0.41648003  0.84287582  1
  Li  Li7  1  0.46948532  0.05299863  0.84281970  1
  Li  Li8  1  0.61366501  0.74981294  0.17620842  1
  Li  Li9  1  0.61366711  0.86384695  0.67615420  1
  Li  Li10  1  0.58354581  0.53056214  0.84285193  1
  Li  Li11  1  0.58352015  0.05300189  0.34287515  1
  Li  Li12  1  0.28033170  0.08314747  0.50954318  1
  Li  Li13  1  0.28033390  0.19718014  0.00948682  1
  Li  Li14  1  0.13610325  0.74978849  0.67618568  1
  Li  Li15  1  0.80276996  0.08312058  0.00951800  1
  Li  Li16  1  0.91687918  0.19723031  0.50951889  1
  Li  Li17  1  0.91685376  0.71966819  0.00954206  1
  Br  Br18  1  0.76562914  0.83897958  0.91489453  1
  Br  Br19  1  0.76565710  0.92666204  0.41491319  1
  Br  Br20  1  0.49435446  0.90103817  0.08156184  1
  Br  Br21  1  0.40669419  0.50566036  0.08157569  1
  Br  Br22  1  0.82767233  0.25997235  0.24824215  1
  Br  Br23  1  0.16100636  0.92663882  0.91490910  1
  Br  Br24  1  0.40667134  0.90100898  0.58157850  1
  Br  Br25  1  0.49433991  0.59330564  0.58157652  1
  Br  Br26  1  0.07333763  0.23434226  0.91491184  1
  Br  Br27  1  0.07336141  0.83899417  0.41490874  1
  Br  Br28  1  0.09896244  0.50564627  0.58156184  1
  Br  Br29  1  0.09899117  0.59332850  0.08157946  1
  Br  Br30  1  0.74000468  0.56767561  0.24824619  1
  Br  Br31  1  0.74002731  0.17232716  0.74824238  1
  Br  Br32  1  0.16102066  0.23437082  0.41489535  1
  Br  Br33  1  0.82768701  0.56770420  0.74822864  1
  Br  Br34  1  0.43229460  0.17231216  0.24822859  1
  Br  Br35  1  0.43232418  0.25999539  0.74824543  1
