# generated using pymatgen
data_LiI
_symmetry_space_group_name_H-M   'P 1'
_cell_length_a   11.25050513
_cell_length_b   11.25050545
_cell_length_c   8.69522880
_cell_angle_alpha   89.99992143
_cell_angle_beta   90.00003615
_cell_angle_gamma   90.00046781
_symmetry_Int_Tables_number   1
_chemical_formula_structural   LiI
_chemical_formula_sum   'Li16 I16'
_cell_volume   1100.58875371
_cell_formula_units_Z   16
loop_
 _symmetry_equiv_pos_site_id
 _symmetry_equiv_pos_as_xyz
  1  'x, y, z'
loop_
 _atom_site_type_symbol
 _atom_site_label
 _atom_site_symmetry_multiplicity
 _atom_site_fract_x
 _atom_site_fract_y
 _atom_site_fract_z
 _atom_site_occupancy
  Li  Li0  1  0.49947150  0.16386722  0.70809865  1
  Li  Li1  1  0.66386788  0.49947316  0.95810231  1
  Li  Li2  1  0.50052663  0.16386844  0.20809714  1
  Li  Li3  1  0.50052933  0.83613093  0.70809818  1
  Li  Li4  1  0.33613191  0.50052818  0.95810001  1
  Li  Li5  1  0.83613218  0.99947294  0.95809995  1
  Li  Li6  1  0.16386812  0.00052687  0.95809812  1
  Li  Li7  1  0.33613165  0.49947513  0.45810119  1
  Li  Li8  1  0.66386703  0.50052266  0.45810103  1
  Li  Li9  1  0.00052747  0.33613195  0.20810183  1
  Li  Li10  1  0.83613300  0.00052791  0.45809892  1
  Li  Li11  1  0.99947373  0.66386779  0.20810111  1
  Li  Li12  1  0.16386824  0.99947184  0.45809857  1
  Li  Li13  1  0.00052401  0.66386824  0.70810136  1
  Li  Li14  1  0.99947524  0.33613255  0.70810180  1
  Li  Li15  1  0.49947282  0.83613181  0.20809944  1
  I  I16  1  0.50066253  0.68752336  -0.04178227  1
  I  I17  1  0.18752362  0.50066247  0.20821945  1
  I  I18  1  0.49934022  0.68752129  0.45821742  1
  I  I19  1  0.49933765  0.31247826  -0.04178299  1
  I  I20  1  0.81247702  0.49933799  0.20822163  1
  I  I21  1  0.31247725  0.00066221  0.20821712  1
  I  I22  1  0.68752228  0.99933825  0.20821859  1
  I  I23  1  0.81247612  0.50066063  0.70822102  1
  I  I24  1  0.18752295  0.49934096  0.70821975  1
  I  I25  1  0.99933734  0.81247696  0.45822036  1
  I  I26  1  0.31247774  0.99933562  0.70821717  1
  I  I27  1  0.00066303  0.18752395  0.45822041  1
  I  I28  1  0.68752309  0.00066321  0.70821767  1
  I  I29  1  0.99933786  0.18752381  -0.04178020  1
  I  I30  1  0.00066157  0.81247711  -0.04177906  1
  I  I31  1  0.50065900  0.31247631  0.45821768  1
