# generated using pymatgen
data_NaBr
_symmetry_space_group_name_H-M   'P 1'
_cell_length_a   3.93586773
_cell_length_b   3.93586778
_cell_length_c   14.37665489
_cell_angle_alpha   90.00001112
_cell_angle_beta   89.99998907
_cell_angle_gamma   89.99999997
_symmetry_Int_Tables_number   1
_chemical_formula_structural   NaBr
_chemical_formula_sum   'Na4 Br4'
_cell_volume   222.70955111
_cell_formula_units_Z   4
loop_
 _symmetry_equiv_pos_site_id
 _symmetry_equiv_pos_as_xyz
  1  'x, y, z'
loop_
 _atom_site_type_symbol
 _atom_site_label
 _atom_site_symmetry_multiplicity
 _atom_site_fract_x
 _atom_site_fract_y
 _atom_site_fract_z
 _atom_site_occupancy
  Na  Na0  1  0.75176588  0.75564415  0.57344531  1
  Na  Na1  1  0.75564432  0.24823425  0.32344596  1
  Na  Na2  1  0.24823399  0.24435561  0.07344720  1
  Na  Na3  1  0.24435578  0.75176613  0.82344656  1
  Br  Br4  1  0.25222158  0.25390127  0.48821123  1
  Br  Br5  1  0.25390144  0.74777851  0.23821207  1
  Br  Br6  1  0.74777840  0.74609842  -0.01178805  1
  Br  Br7  1  0.74609860  0.25222168  0.73821111  1
