# generated using pymatgen
data_LiI
_symmetry_space_group_name_H-M   'P 1'
_cell_length_a   11.68195184
_cell_length_b   11.68211033
_cell_length_c   11.68196995
_cell_angle_alpha   89.99999384
_cell_angle_beta   89.99999561
_cell_angle_gamma   89.99999278
_symmetry_Int_Tables_number   1
_chemical_formula_structural   LiI
_chemical_formula_sum   'Li24 I24'
_cell_volume   1594.23669170
_cell_formula_units_Z   24
loop_
 _symmetry_equiv_pos_site_id
 _symmetry_equiv_pos_as_xyz
  1  'x, y, z'
loop_
 _atom_site_type_symbol
 _atom_site_label
 _atom_site_symmetry_multiplicity
 _atom_site_fract_x
 _atom_site_fract_y
 _atom_site_fract_z
 _atom_site_occupancy
  Li  Li0  1  0.25029346  0.49981037  0.25018216  1
  Li  Li1  1  0.75029225  0.00018949  0.74981549  1
  Li  Li2  1  0.75018201  0.25029572  0.00019124  1
  Li  Li3  1  0.75018165  0.24970598  0.50019089  1
  Li  Li4  1  -0.00018823  0.24981653  0.74970288  1
  Li  Li5  1  0.25018165  0.25029551  0.49981047  1
  Li  Li6  1  0.74981775  0.75029808  0.00019087  1
  Li  Li7  1  0.24981834  0.74970364  -0.00018896  1
  Li  Li8  1  0.50018885  0.75018189  0.24970244  1
  Li  Li9  1  0.49981086  0.25018042  0.25029432  1
  Li  Li10  1  0.00018992  0.74981693  0.75029787  1
  Li  Li11  1  0.74970697  -0.00019118  0.24981798  1
  Li  Li12  1  0.24970638  0.50019033  0.75018253  1
  Li  Li13  1  0.74981649  0.74970470  0.50019052  1
  Li  Li14  1  0.25018124  0.24970219  -0.00018939  1
  Li  Li15  1  0.24981645  0.75029540  0.49980861  1
  Li  Li16  1  0.00019340  0.75018243  0.25029646  1
  Li  Li17  1  0.49980787  0.24981740  0.75029527  1
  Li  Li18  1  0.50018949  0.74981707  0.74970410  1
  Li  Li19  1  -0.00018937  0.25018326  0.24970212  1
  Li  Li20  1  0.25029287  0.00018739  0.75018339  1
  Li  Li21  1  0.75029274  0.49981093  0.24981605  1
  Li  Li22  1  0.74970924  0.50018906  0.74981743  1
  Li  Li23  1  0.24970612  -0.00018757  0.25018341  1
  I  I24  1  0.49975514  0.50004800  0.75017961  1
  I  I25  1  -0.00024043  -0.00003306  0.24982047  1
  I  I26  1  0.25017944  0.49976357  -0.00003196  1
  I  I27  1  0.25017926  0.00023634  0.49995691  1
  I  I28  1  0.00003584  0.74982154  0.50023318  1
  I  I29  1  0.75017946  0.49975880  0.50004685  1
  I  I30  1  0.24982071  -0.00024199  -0.00003532  1
  I  I31  1  0.74982075  0.50023701  0.00003234  1
  I  I32  1  0.49995713  0.25017903  0.00023037  1
  I  I33  1  0.50004231  0.75018009  0.49975276  1
  I  I34  1  -0.00003632  0.24982057  -0.00024440  1
  I  I35  1  0.50023331  0.00003075  0.74982113  1
  I  I36  1  0.00023121  0.49995432  0.25017896  1
  I  I37  1  0.24982106  0.50024287  0.49995295  1
  I  I38  1  0.75017924  0.00024179  0.00003615  1
  I  I39  1  0.74982085  -0.00023509  0.50004336  1
  I  I40  1  -0.00003551  0.25017974  0.49976693  1
  I  I41  1  0.50004200  0.74982081  -0.00022990  1
  I  I42  1  0.49995659  0.24982158  0.50024616  1
  I  I43  1  0.00003707  0.75017878  0.00024479  1
  I  I44  1  0.49976592  -0.00003111  0.25017913  1
  I  I45  1  -0.00022954  0.50004555  0.74982110  1
  I  I46  1  0.50024487  0.49995183  0.24982083  1
  I  I47  1  0.00024124  0.00003230  0.75017944  1
