# generated using pymatgen
data_LiBr
_symmetry_space_group_name_H-M   'P 1'
_cell_length_a   3.89533188
_cell_length_b   3.89517230
_cell_length_c   9.53511329
_cell_angle_alpha   90.00878373
_cell_angle_beta   90.00284362
_cell_angle_gamma   120.00292733
_symmetry_Int_Tables_number   1
_chemical_formula_structural   LiBr
_chemical_formula_sum   'Li3 Br3'
_cell_volume   125.28953754
_cell_formula_units_Z   3
loop_
 _symmetry_equiv_pos_site_id
 _symmetry_equiv_pos_as_xyz
  1  'x, y, z'
loop_
 _atom_site_type_symbol
 _atom_site_label
 _atom_site_symmetry_multiplicity
 _atom_site_fract_x
 _atom_site_fract_y
 _atom_site_fract_z
 _atom_site_occupancy
  Li  Li0  1  0.66458458  -0.00174342  0.39404158  1
  Li  Li1  1  0.00163127  0.66613979  0.06085717  1
  Li  Li2  1  0.33384517  0.33562557  0.72765549  1
  Br  Br3  1  0.66814891  -0.00059199  0.89402554  1
  Br  Br4  1  0.00050798  0.66860916  0.56067818  1
  Br  Br5  1  0.33128209  0.33196090  0.22721592  1
