# generated using pymatgen
data_NaCl
_symmetry_space_group_name_H-M   'P 1'
_cell_length_a   6.97431396
_cell_length_b   4.02547452
_cell_length_c   6.95558715
_cell_angle_alpha   89.99999105
_cell_angle_beta   109.33314351
_cell_angle_gamma   90.00000676
_symmetry_Int_Tables_number   1
_chemical_formula_structural   NaCl
_chemical_formula_sum   'Na4 Cl4'
_cell_volume   184.26579457
_cell_formula_units_Z   4
loop_
 _symmetry_equiv_pos_site_id
 _symmetry_equiv_pos_as_xyz
  1  'x, y, z'
loop_
 _atom_site_type_symbol
 _atom_site_label
 _atom_site_symmetry_multiplicity
 _atom_site_fract_x
 _atom_site_fract_y
 _atom_site_fract_z
 _atom_site_occupancy
  Na  Na0  1  0.12786636  0.25046570  0.68139943  1
  Na  Na1  1  0.62786637  0.75046570  0.68139943  1
  Na  Na2  1  0.12786704  0.74953446  0.18139676  1
  Na  Na3  1  0.62786703  0.24953445  0.18139675  1
  Cl  Cl4  1  0.87813572  0.75059843  0.43187119  1
  Cl  Cl5  1  0.37813573  0.25059842  0.43187119  1
  Cl  Cl6  1  0.87813572  0.24940143  0.93187105  1
  Cl  Cl7  1  0.37813571  0.74940142  0.93187104  1
