# generated using pymatgen
data_LiBr
_symmetry_space_group_name_H-M   'P 1'
_cell_length_a   5.73533772
_cell_length_b   4.42525892
_cell_length_c   7.76393407
_cell_angle_alpha   90.00007003
_cell_angle_beta   90.00015162
_cell_angle_gamma   89.99996908
_symmetry_Int_Tables_number   1
_chemical_formula_structural   LiBr
_chemical_formula_sum   'Li4 Br4'
_cell_volume   197.05139796
_cell_formula_units_Z   4
loop_
 _symmetry_equiv_pos_site_id
 _symmetry_equiv_pos_as_xyz
  1  'x, y, z'
loop_
 _atom_site_type_symbol
 _atom_site_label
 _atom_site_symmetry_multiplicity
 _atom_site_fract_x
 _atom_site_fract_y
 _atom_site_fract_z
 _atom_site_occupancy
  Li  Li0  1  0.26359593  0.24360458  0.83393360  1
  Li  Li1  1  0.73640702  0.74360873  0.66606463  1
  Li  Li2  1  0.23640606  0.75639530  0.33392165  1
  Li  Li3  1  0.76359291  0.25639099  0.16607976  1
  Br  Br4  1  0.74943751  0.24418406  0.83439006  1
  Br  Br5  1  0.25056117  0.74417997  0.66560992  1
  Br  Br6  1  0.75056005  0.75581595  0.33437698  1
  Br  Br7  1  0.24943935  0.25582041  0.16562339  1
