# generated using pymatgen
data_NaI
_symmetry_space_group_name_H-M   'P 1'
_cell_length_a   6.53058808
_cell_length_b   4.61905070
_cell_length_c   9.22954300
_cell_angle_alpha   89.99999140
_cell_angle_beta   90.00003975
_cell_angle_gamma   89.99999933
_symmetry_Int_Tables_number   1
_chemical_formula_structural   NaI
_chemical_formula_sum   'Na4 I4'
_cell_volume   278.41024873
_cell_formula_units_Z   4
loop_
 _symmetry_equiv_pos_site_id
 _symmetry_equiv_pos_as_xyz
  1  'x, y, z'
loop_
 _atom_site_type_symbol
 _atom_site_label
 _atom_site_symmetry_multiplicity
 _atom_site_fract_x
 _atom_site_fract_y
 _atom_site_fract_z
 _atom_site_occupancy
  Na  Na0  1  0.25284494  0.00173436  0.87541928  1
  Na  Na1  1  0.74715506  0.50173454  0.62457953  1
  Na  Na2  1  0.24715455  -0.00173421  0.37542360  1
  Na  Na3  1  0.75284529  0.49826587  0.12457760  1
  I  I4  1  0.25170898  0.50084101  0.12533462  1
  I  I5  1  0.74829107  0.00084096  0.37466557  1
  I  I6  1  0.24829117  0.49915877  0.62533305  1
  I  I7  1  0.75170893  -0.00084130  0.87466674  1
