# generated using pymatgen
data_LiI
_symmetry_space_group_name_H-M   'P 1'
_cell_length_a   4.25548924
_cell_length_b   4.25942389
_cell_length_c   7.37647696
_cell_angle_alpha   89.99965718
_cell_angle_beta   125.30527204
_cell_angle_gamma   90.00030879
_symmetry_Int_Tables_number   1
_chemical_formula_structural   LiI
_chemical_formula_sum   'Li2 I2'
_cell_volume   109.11499400
_cell_formula_units_Z   2
loop_
 _symmetry_equiv_pos_site_id
 _symmetry_equiv_pos_as_xyz
  1  'x, y, z'
loop_
 _atom_site_type_symbol
 _atom_site_label
 _atom_site_symmetry_multiplicity
 _atom_site_fract_x
 _atom_site_fract_y
 _atom_site_fract_z
 _atom_site_occupancy
  Li  Li0  1  0.49704508  0.71017625  0.24732010  1
  Li  Li1  1  0.50295583  0.21017700  0.75268019  1
  I  I2  1  0.00011776  0.21145937  0.25041652  1
  I  I3  1  -0.00011868  0.71145085  0.74958319  1
