# generated using pymatgen
data_LiI
_symmetry_space_group_name_H-M   'P 1'
_cell_length_a   6.98541066
_cell_length_b   8.46916145
_cell_length_c   7.31734097
_cell_angle_alpha   90.00023390
_cell_angle_beta   89.99948151
_cell_angle_gamma   89.99939472
_symmetry_Int_Tables_number   1
_chemical_formula_structural   LiI
_chemical_formula_sum   'Li8 I8'
_cell_volume   432.89806729
_cell_formula_units_Z   8
loop_
 _symmetry_equiv_pos_site_id
 _symmetry_equiv_pos_as_xyz
  1  'x, y, z'
loop_
 _atom_site_type_symbol
 _atom_site_label
 _atom_site_symmetry_multiplicity
 _atom_site_fract_x
 _atom_site_fract_y
 _atom_site_fract_z
 _atom_site_occupancy
  Li  Li0  1  0.50198724  0.37369963  0.25069981  1
  Li  Li1  1  0.50199228  0.12630111  0.75070267  1
  Li  Li2  1  0.00200432  0.12630020  0.74929118  1
  Li  Li3  1  -0.00199705  0.62630061  0.75071672  1
  Li  Li4  1  0.49800147  0.87369972  0.24928587  1
  Li  Li5  1  -0.00200796  0.87369742  0.25072166  1
  Li  Li6  1  0.00199294  0.37370126  0.24929773  1
  Li  Li7  1  0.49800550  0.62630092  0.74928835  1
  I  I8  1  0.25059010  0.37556744  0.91751092  1
  I  I9  1  0.25059227  0.12443239  0.41750915  1
  I  I10  1  0.75059412  0.12443361  0.08248881  1
  I  I11  1  0.24941041  0.62443541  0.41750925  1
  I  I12  1  0.74941559  0.87556881  0.58249023  1
  I  I13  1  0.24941388  0.87556383  0.91750998  1
  I  I14  1  0.75059307  0.37556699  0.58248813  1
  I  I15  1  0.74941182  0.62443065  0.08248953  1
