# generated using pymatgen
data_LiBr
_symmetry_space_group_name_H-M   'P 1'
_cell_length_a   10.06794809
_cell_length_b   10.06793155
_cell_length_c   8.43462395
_cell_angle_alpha   90.00002197
_cell_angle_beta   90.00002479
_cell_angle_gamma   90.00002590
_symmetry_Int_Tables_number   1
_chemical_formula_structural   LiBr
_chemical_formula_sum   'Li16 Br16'
_cell_volume   854.96226441
_cell_formula_units_Z   16
loop_
 _symmetry_equiv_pos_site_id
 _symmetry_equiv_pos_as_xyz
  1  'x, y, z'
loop_
 _atom_site_type_symbol
 _atom_site_label
 _atom_site_symmetry_multiplicity
 _atom_site_fract_x
 _atom_site_fract_y
 _atom_site_fract_z
 _atom_site_occupancy
  Li  Li0  1  0.50155451  0.16948391  0.82770110  1
  Li  Li1  1  0.66948517  0.50155451  0.07770050  1
  Li  Li2  1  0.49844559  0.16948479  0.32770167  1
  Li  Li3  1  0.49844508  0.83051549  0.82770196  1
  Li  Li4  1  0.33051471  0.49844522  0.07770166  1
  Li  Li5  1  0.83051564  0.00155426  0.07770133  1
  Li  Li6  1  0.16948427  0.99844604  0.07770146  1
  Li  Li7  1  0.33051503  0.50155431  0.57770101  1
  Li  Li8  1  0.66948505  0.49844590  0.57770109  1
  Li  Li9  1  0.99844504  0.33051629  0.32770251  1
  Li  Li10  1  0.83051450  0.99844522  0.57770181  1
  Li  Li11  1  0.00155483  0.66948414  0.32770118  1
  Li  Li12  1  0.16948556  0.00155454  0.57770049  1
  Li  Li13  1  0.99844588  0.66948438  0.82770157  1
  Li  Li14  1  0.00155450  0.33051525  0.82770126  1
  Li  Li15  1  0.50155468  0.83051580  0.32770196  1
  Br  Br16  1  0.19111794  0.49887670  0.32771542  1
  Br  Br17  1  0.99887682  0.19111792  0.57771575  1
  Br  Br18  1  0.80888210  0.49887708  0.82771565  1
  Br  Br19  1  0.80888186  0.50112335  0.32771524  1
  Br  Br20  1  0.00112321  0.80888177  0.57771567  1
  Br  Br21  1  0.50112295  0.69111811  0.57771575  1
  Br  Br22  1  0.49887709  0.30888203  0.57771586  1
  Br  Br23  1  0.00112296  0.19111848  0.07771580  1
  Br  Br24  1  0.99887706  0.80888177  0.07771566  1
  Br  Br25  1  0.30888163  0.00112312  0.82771574  1
  Br  Br26  1  0.50112300  0.30888161  0.07771557  1
  Br  Br27  1  0.69111805  0.99887680  0.82771599  1
  Br  Br28  1  0.49887692  0.69111822  0.07771594  1
  Br  Br29  1  0.30888198  0.99887691  0.32771541  1
  Br  Br30  1  0.69111827  0.00112326  0.32771545  1
  Br  Br31  1  0.19111814  0.50112281  0.82771568  1
