# generated using pymatgen
data_LiBr
_symmetry_space_group_name_H-M   'P 1'
_cell_length_a   5.38920242
_cell_length_b   4.53438453
_cell_length_c   14.05846535
_cell_angle_alpha   90.00000776
_cell_angle_beta   139.75943574
_cell_angle_gamma   89.99998629
_symmetry_Int_Tables_number   1
_chemical_formula_structural   LiBr
_chemical_formula_sum   'Li4 Br4'
_cell_volume   221.92800946
_cell_formula_units_Z   4
loop_
 _symmetry_equiv_pos_site_id
 _symmetry_equiv_pos_as_xyz
  1  'x, y, z'
loop_
 _atom_site_type_symbol
 _atom_site_label
 _atom_site_symmetry_multiplicity
 _atom_site_fract_x
 _atom_site_fract_y
 _atom_site_fract_z
 _atom_site_occupancy
  Li  Li0  1  0.24849486  0.24933284  0.37465548  1
  Li  Li1  1  0.75149460  0.74933290  0.12534246  1
  Li  Li2  1  0.75150488  0.75066718  0.62534442  1
  Li  Li3  1  0.24850559  0.25066707  0.87465755  1
  Br  Br4  1  0.53301827  0.25024309  0.62539134  1
  Br  Br5  1  0.46699197  0.75024292  0.87461009  1
  Br  Br6  1  0.46698186  0.74975694  0.37460870  1
  Br  Br7  1  0.53300797  0.24975706  0.12538997  1
