# generated using pymatgen
data_LiI
_symmetry_space_group_name_H-M   'P 1'
_cell_length_a   8.53723534
_cell_length_b   8.53717202
_cell_length_c   14.11099615
_cell_angle_alpha   90.00045053
_cell_angle_beta   90.00036472
_cell_angle_gamma   90.00009231
_symmetry_Int_Tables_number   1
_chemical_formula_structural   LiI
_chemical_formula_sum   'Li16 I16'
_cell_volume   1028.46368017
_cell_formula_units_Z   16
loop_
 _symmetry_equiv_pos_site_id
 _symmetry_equiv_pos_as_xyz
  1  'x, y, z'
loop_
 _atom_site_type_symbol
 _atom_site_label
 _atom_site_symmetry_multiplicity
 _atom_site_fract_x
 _atom_site_fract_y
 _atom_site_fract_z
 _atom_site_occupancy
  Li  Li0  1  0.68693970  0.18813663  0.46563089  1
  Li  Li1  1  0.68812397  0.68692375  0.71562697  1
  Li  Li2  1  0.31306837  0.18812979  0.96563101  1
  Li  Li3  1  0.31307025  0.81186777  0.46563038  1
  Li  Li4  1  0.31187417  0.31307738  0.71562450  1
  Li  Li5  1  0.81185508  0.18693107  0.71562839  1
  Li  Li6  1  0.18813589  0.81307194  0.71562526  1
  Li  Li7  1  0.31186924  0.68692696  0.21562360  1
  Li  Li8  1  0.68813258  0.31307385  0.21562398  1
  Li  Li9  1  0.81306968  0.31185789  0.96562127  1
  Li  Li10  1  0.81186557  0.81307317  0.21562694  1
  Li  Li11  1  0.18692393  0.68813992  0.96562112  1
  Li  Li12  1  0.18814001  0.18693310  0.21562441  1
  Li  Li13  1  0.81307059  0.68813723  0.46562073  1
  Li  Li14  1  0.18692558  0.31185444  0.46562050  1
  Li  Li15  1  0.68693684  0.81186442  0.96563073  1
  I  I16  1  0.25038411  0.55977880  0.59040526  1
  I  I17  1  0.05978342  0.25038638  0.84040667  1
  I  I18  1  0.74961736  0.55977839  0.09040769  1
  I  I19  1  0.74961242  0.44022031  0.59040817  1
  I  I20  1  0.94021580  0.74961414  0.84040628  1
  I  I21  1  0.44022079  0.75039680  0.84041061  1
  I  I22  1  0.55977525  0.24960283  0.84041027  1
  I  I23  1  0.94021754  0.25038131  0.34040463  1
  I  I24  1  0.05978359  0.74961309  0.34040732  1
  I  I25  1  0.24960490  0.94021809  0.09040911  1
  I  I26  1  0.44022455  0.24960783  0.34040885  1
  I  I27  1  0.75038885  0.05978172  0.09040886  1
  I  I28  1  0.55977896  0.75040041  0.34040710  1
  I  I29  1  0.24961030  0.05978241  0.59040885  1
  I  I30  1  0.75039299  0.94021615  0.59041028  1
  I  I31  1  0.25038771  0.44022201  0.09040540  1
