# generated using pymatgen
data_KI
_symmetry_space_group_name_H-M   'P 1'
_cell_length_a   12.19512418
_cell_length_b   6.18373067
_cell_length_c   4.34332444
_cell_angle_alpha   89.99999652
_cell_angle_beta   89.99998992
_cell_angle_gamma   90.00000799
_symmetry_Int_Tables_number   1
_chemical_formula_structural   KI
_chemical_formula_sum   'K4 I4'
_cell_volume   327.53601762
_cell_formula_units_Z   4
loop_
 _symmetry_equiv_pos_site_id
 _symmetry_equiv_pos_as_xyz
  1  'x, y, z'
loop_
 _atom_site_type_symbol
 _atom_site_label
 _atom_site_symmetry_multiplicity
 _atom_site_fract_x
 _atom_site_fract_y
 _atom_site_fract_z
 _atom_site_occupancy
  K  K0  1  0.37468773  0.74899570  -0.00100000  1
  K  K1  1  0.12531227  0.24899552  0.00100036  1
  K  K2  1  0.62531237  0.25100478  -0.00099790  1
  K  K3  1  0.87468763  0.75100462  0.00099759  1
  I  I4  1  0.37484955  0.24875978  0.50295596  1
  I  I5  1  0.12515041  0.74875978  0.49704332  1
  I  I6  1  0.62515024  0.75123991  0.50295446  1
  I  I7  1  0.87484979  0.25123990  0.49704622  1
