# generated using pymatgen
data_LiBr
_symmetry_space_group_name_H-M   'P 1'
_cell_length_a   8.26366048
_cell_length_b   8.26402363
_cell_length_c   6.71708822
_cell_angle_alpha   90.00036519
_cell_angle_beta   90.00176616
_cell_angle_gamma   90.00289102
_symmetry_Int_Tables_number   1
_chemical_formula_structural   LiBr
_chemical_formula_sum   'Li8 Br8'
_cell_volume   458.71724509
_cell_formula_units_Z   8
loop_
 _symmetry_equiv_pos_site_id
 _symmetry_equiv_pos_as_xyz
  1  'x, y, z'
loop_
 _atom_site_type_symbol
 _atom_site_label
 _atom_site_symmetry_multiplicity
 _atom_site_fract_x
 _atom_site_fract_y
 _atom_site_fract_z
 _atom_site_occupancy
  Li  Li0  1  0.86604452  0.85448077  0.42462150  1
  Li  Li1  1  0.64553683  0.63397791  0.92470072  1
  Li  Li2  1  0.63397689  0.35444383  0.42465564  1
  Li  Li3  1  0.35446177  0.36601950  0.92466992  1
  Li  Li4  1  0.36600531  0.64554401  0.42463412  1
  Li  Li5  1  0.13395996  0.14555320  0.42463420  1
  Li  Li6  1  0.85447598  0.13396858  0.92467753  1
  Li  Li7  1  0.14553758  0.86601095  0.92463668  1
  Br  Br8  1  0.83693483  0.15058580  0.54621960  1
  Br  Br9  1  0.34939385  0.66307608  0.04621072  1
  Br  Br10  1  0.66308797  0.65061002  0.54621216  1
  Br  Br11  1  0.65060257  0.33692864  0.04618288  1
  Br  Br12  1  0.33692503  0.34940445  0.54624641  1
  Br  Br13  1  0.16306810  0.84937912  0.54626187  1
  Br  Br14  1  0.15059014  0.16307165  0.04622293  1
  Br  Br15  1  0.84939868  0.83694550  0.04622903  1
