# generated using pymatgen
data_LiBr
_symmetry_space_group_name_H-M   'P 1'
_cell_length_a   11.51120297
_cell_length_b   11.51111584
_cell_length_c   7.94339060
_cell_angle_alpha   89.97575739
_cell_angle_beta   90.02467608
_cell_angle_gamma   119.96480907
_symmetry_Int_Tables_number   1
_chemical_formula_structural   LiBr
_chemical_formula_sum   'Li18 Br18'
_cell_volume   911.86076255
_cell_formula_units_Z   18
loop_
 _symmetry_equiv_pos_site_id
 _symmetry_equiv_pos_as_xyz
  1  'x, y, z'
loop_
 _atom_site_type_symbol
 _atom_site_label
 _atom_site_symmetry_multiplicity
 _atom_site_fract_x
 _atom_site_fract_y
 _atom_site_fract_z
 _atom_site_occupancy
  Li  Li0  1  0.86969812  0.74030907  0.05945998  1
  Li  Li1  1  0.86968453  0.12948091  0.55942095  1
  Li  Li2  1  0.59302553  0.79696776  0.22612835  1
  Li  Li3  1  0.20387281  0.40696461  0.22610834  1
  Li  Li4  1  0.92636792  0.46279304  0.39277894  1
  Li  Li5  1  0.25970578  0.12946692  0.05944625  1
  Li  Li6  1  0.20385101  0.79698245  0.72609236  1
  Li  Li7  1  0.59303384  0.79612466  0.72610965  1
  Li  Li8  1  0.87051882  0.13031496  0.05941993  1
  Li  Li9  1  0.87053725  0.74029545  0.55944200  1
  Li  Li10  1  0.20303055  0.40697311  0.72612532  1
  Li  Li11  1  0.20301604  0.79614938  0.22608772  1
  Li  Li12  1  0.53718598  0.46364743  0.39275308  1
  Li  Li13  1  0.53720380  0.07363100  0.89278090  1
  Li  Li14  1  0.25969101  0.13030280  0.55946117  1
  Li  Li15  1  0.92635546  0.46363244  0.89279617  1
  Li  Li16  1  0.53636339  0.07364081  0.39279829  1
  Li  Li17  1  0.53635125  0.46281373  0.89275451  1
  Br  Br18  1  0.75851865  0.87948605  -0.01353492  1
  Br  Br19  1  0.75853412  0.87897681  0.48646438  1
  Br  Br20  1  0.45384549  0.90814567  0.15313534  1
  Br  Br21  1  0.45436115  0.54611875  0.15326613  1
  Br  Br22  1  0.78721714  0.21230704  0.31993430  1
  Br  Br23  1  0.12055187  0.87897628  -0.01339755  1
  Br  Br24  1  0.45435393  0.90813105  0.65313387  1
  Br  Br25  1  0.45388466  0.54564143  0.65326550  1
  Br  Br26  1  0.12102256  0.24146824  -0.01353830  1
  Br  Br27  1  0.12102519  0.87944645  0.48660255  1
  Br  Br28  1  0.09185366  0.54615483  0.65313476  1
  Br  Br29  1  0.09186877  0.54564791  0.15312941  1
  Br  Br30  1  0.78769323  0.57480082  0.31979573  1
  Br  Br31  1  0.78769120  0.21278198  0.81993434  1
  Br  Br32  1  0.12051270  0.24148138  0.48646434  1
  Br  Br33  1  0.78718383  0.57481620  0.81979993  1
  Br  Br34  1  0.42518695  0.21281852  0.31980202  1
  Br  Br35  1  0.42520182  0.21231009  0.81979640  1
