# generated using pymatgen
data_LiBr
_symmetry_space_group_name_H-M   'P 1'
_cell_length_a   11.58421223
_cell_length_b   11.58420820
_cell_length_c   7.69557884
_cell_angle_alpha   89.99763248
_cell_angle_beta   90.00244841
_cell_angle_gamma   120.00157323
_symmetry_Int_Tables_number   1
_chemical_formula_structural   LiBr
_chemical_formula_sum   'Li18 Br18'
_cell_volume   894.33020330
_cell_formula_units_Z   18
loop_
 _symmetry_equiv_pos_site_id
 _symmetry_equiv_pos_as_xyz
  1  'x, y, z'
loop_
 _atom_site_type_symbol
 _atom_site_label
 _atom_site_symmetry_multiplicity
 _atom_site_fract_x
 _atom_site_fract_y
 _atom_site_fract_z
 _atom_site_occupancy
  Li  Li0  1  0.12619721  0.86694239  0.82942151  1
  Li  Li1  1  0.12619491  0.25924994  0.32942995  1
  Li  Li2  1  0.46645950  0.54051582  -0.00299564  1
  Li  Li3  1  0.07406356  0.53355270  -0.00298946  1
  Li  Li4  1  0.79977849  0.59258255  0.16343726  1
  Li  Li5  1  0.13306304  0.25926290  0.82943508  1
  Li  Li6  1  0.07406526  0.54051721  0.49700616  1
  Li  Li7  1  0.46644642  0.92593652  0.49701007  1
  Li  Li8  1  0.74074991  0.87380509  0.82942843  1
  Li  Li9  1  0.74073602  0.86693687  0.32943409  1
  Li  Li10  1  0.45948400  0.53353990  0.49700372  1
  Li  Li11  1  0.45948259  0.92593587  -0.00299359  1
  Li  Li12  1  0.40741750  0.20719651  0.16343290  1
  Li  Li13  1  0.40741776  0.20022154  0.66344138  1
  Li  Li14  1  0.13305772  0.87380300  0.32942148  1
  Li  Li15  1  0.79978298  0.20720087  0.66338239  1
  Li  Li16  1  0.79279879  0.20021683  0.16338283  1
  Li  Li17  1  0.79280357  0.59258199  0.66342894  1
  Br  Br18  1  0.55033874  0.09465414  0.73872472  1
  Br  Br19  1  0.55033629  0.45568112  0.23874105  1
  Br  Br20  1  0.23867709  0.11635507  0.90518586  1
  Br  Br21  1  0.87767536  0.76131840  0.90518060  1
  Br  Br22  1  0.57205837  0.78904895  0.07147719  1
  Br  Br23  1  0.90534961  0.45568208  0.73872134  1
  Br  Br24  1  0.87766917  0.11635212  0.40515707  1
  Br  Br25  1  0.23868195  0.12232496  0.40518426  1
  Br  Br26  1  0.54431929  0.44966406  0.73874124  1
  Br  Br27  1  0.54431778  0.09465094  0.23872322  1
  Br  Br28  1  0.88364507  0.76132363  0.40518244  1
  Br  Br29  1  0.88364807  0.12233109  0.90515702  1
  Br  Br30  1  0.21095044  0.78301023  0.07148667  1
  Br  Br31  1  0.21095180  0.42794159  0.57147897  1
  Br  Br32  1  0.90534540  0.44966122  0.23872335  1
  Br  Br33  1  0.57204856  0.78300166  0.57148349  1
  Br  Br34  1  0.21699819  0.42795077  0.07148508  1
  Br  Br35  1  0.21698959  0.78904950  0.57148667  1
