# generated using pymatgen
data_LiBr
_symmetry_space_group_name_H-M   'P 1'
_cell_length_a   7.05768363
_cell_length_b   7.05767008
_cell_length_c   8.73161521
_cell_angle_alpha   90.00001802
_cell_angle_beta   89.99999278
_cell_angle_gamma   120.00530732
_symmetry_Int_Tables_number   1
_chemical_formula_structural   LiBr
_chemical_formula_sum   'Li6 Br6'
_cell_volume   376.63921143
_cell_formula_units_Z   6
loop_
 _symmetry_equiv_pos_site_id
 _symmetry_equiv_pos_as_xyz
  1  'x, y, z'
loop_
 _atom_site_type_symbol
 _atom_site_label
 _atom_site_symmetry_multiplicity
 _atom_site_fract_x
 _atom_site_fract_y
 _atom_site_fract_z
 _atom_site_occupancy
  Li  Li0  1  0.21006824  0.60710490  0.81654680  1
  Li  Li1  1  0.60302062  0.21009076  0.64987652  1
  Li  Li2  1  0.39698005  0.78990927  0.14987644  1
  Li  Li3  1  0.60707309  0.39699392  -0.01677874  1
  Li  Li4  1  0.39292701  0.60300640  0.48322137  1
  Li  Li5  1  0.78993164  0.39289529  0.31654681  1
  Br  Br6  1  0.49547676  0.49654479  0.73398852  1
  Br  Br7  1  -0.00104908  0.49553103  0.56731050  1
  Br  Br8  1  0.00104907  0.50446957  0.06731048  1
  Br  Br9  1  0.49657718  0.00107223  0.90063768  1
  Br  Br10  1  0.50342334  -0.00107219  0.40063759  1
  Br  Br11  1  0.50452207  0.50345404  0.23398865  1
