# generated using pymatgen
data_LiBr
_symmetry_space_group_name_H-M   'P 1'
_cell_length_a   11.40750499
_cell_length_b   10.05408144
_cell_length_c   8.60483998
_cell_angle_alpha   89.99996932
_cell_angle_beta   89.99995208
_cell_angle_gamma   90.00000983
_symmetry_Int_Tables_number   1
_chemical_formula_structural   LiBr
_chemical_formula_sum   'Li16 Br16'
_cell_volume   986.90617198
_cell_formula_units_Z   16
loop_
 _symmetry_equiv_pos_site_id
 _symmetry_equiv_pos_as_xyz
  1  'x, y, z'
loop_
 _atom_site_type_symbol
 _atom_site_label
 _atom_site_symmetry_multiplicity
 _atom_site_fract_x
 _atom_site_fract_y
 _atom_site_fract_z
 _atom_site_occupancy
  Li  Li0  1  0.35588714  -0.00038644  0.75098482  1
  Li  Li1  1  0.64411272  0.00038588  0.75098417  1
  Li  Li2  1  0.89411209  0.24961408  0.00098594  1
  Li  Li3  1  0.14411304  0.00038599  0.25098443  1
  Li  Li4  1  0.39411192  0.24961438  0.50098659  1
  Li  Li5  1  0.60588607  0.25038575  0.00098421  1
  Li  Li6  1  0.85588712  -0.00038624  0.25098477  1
  Li  Li7  1  0.39411411  0.74961395  0.00098535  1
  Li  Li8  1  0.60588732  0.75038625  0.50098410  1
  Li  Li9  1  0.85588743  0.49961416  0.75098549  1
  Li  Li10  1  0.14411182  0.50038609  0.75098491  1
  Li  Li11  1  0.89411291  0.74961417  0.50098550  1
  Li  Li12  1  0.10588784  0.25038588  0.50098463  1
  Li  Li13  1  0.10588891  0.75038589  0.00098433  1
  Li  Li14  1  0.35588661  0.49961416  0.25098520  1
  Li  Li15  1  0.64411291  0.50038583  0.25098479  1
  Br  Br16  1  0.49996506  0.69551311  0.25095455  1
  Br  Br17  1  0.50003365  0.30448666  0.25095391  1
  Br  Br18  1  0.75003464  0.94551276  0.50095372  1
  Br  Br19  1  0.00003399  0.30448703  0.75095352  1
  Br  Br20  1  0.25003558  0.94551330  0.00095484  1
  Br  Br21  1  0.74996574  0.55448723  0.50095386  1
  Br  Br22  1  -0.00003469  0.69551365  0.75095463  1
  Br  Br23  1  0.25003439  0.44551348  0.50095431  1
  Br  Br24  1  0.74996581  0.05448657  0.00095336  1
  Br  Br25  1  -0.00003444  0.19551268  0.25095399  1
  Br  Br26  1  0.00003449  0.80448667  0.25095373  1
  Br  Br27  1  0.75003373  0.44551280  0.00095362  1
  Br  Br28  1  0.24996693  0.55448712  0.00095238  1
  Br  Br29  1  0.24996563  0.05448720  0.50095341  1
  Br  Br30  1  0.49996516  0.19551316  0.75095403  1
  Br  Br31  1  0.50003435  0.80448678  0.75095306  1
