# generated using pymatgen
data_LiBr
_symmetry_space_group_name_H-M   'P 1'
_cell_length_a   3.90234153
_cell_length_b   3.90221135
_cell_length_c   10.93482247
_cell_angle_alpha   89.99689938
_cell_angle_beta   90.00147428
_cell_angle_gamma   90.12133720
_symmetry_Int_Tables_number   1
_chemical_formula_structural   LiBr
_chemical_formula_sum   'Li4 Br4'
_cell_volume   166.51249368
_cell_formula_units_Z   4
loop_
 _symmetry_equiv_pos_site_id
 _symmetry_equiv_pos_as_xyz
  1  'x, y, z'
loop_
 _atom_site_type_symbol
 _atom_site_label
 _atom_site_symmetry_multiplicity
 _atom_site_fract_x
 _atom_site_fract_y
 _atom_site_fract_z
 _atom_site_occupancy
  Li  Li0  1  0.50182704  0.00230070  0.54058638  1
  Li  Li1  1  -0.00091109  0.50074158  0.29045503  1
  Li  Li2  1  0.49841577  0.99753593  0.04072838  1
  Li  Li3  1  0.00060061  0.49943801  0.79049405  1
  Br  Br4  1  -0.00025346  0.50031395  0.04089032  1
  Br  Br5  1  0.49915117  -0.00034479  0.79091954  1
  Br  Br6  1  0.00027541  0.49970416  0.54081921  1
  Br  Br7  1  0.50089455  0.00031047  0.29091192  1
