# generated using pymatgen
data_LiBr
_symmetry_space_group_name_H-M   'P 1'
_cell_length_a   7.87270629
_cell_length_b   7.87269925
_cell_length_c   10.69506163
_cell_angle_alpha   89.99999837
_cell_angle_beta   89.99999498
_cell_angle_gamma   89.99994785
_symmetry_Int_Tables_number   1
_chemical_formula_structural   LiBr
_chemical_formula_sum   'Li16 Br16'
_cell_volume   662.87402537
_cell_formula_units_Z   16
loop_
 _symmetry_equiv_pos_site_id
 _symmetry_equiv_pos_as_xyz
  1  'x, y, z'
loop_
 _atom_site_type_symbol
 _atom_site_label
 _atom_site_symmetry_multiplicity
 _atom_site_fract_x
 _atom_site_fract_y
 _atom_site_fract_z
 _atom_site_occupancy
  Li  Li0  1  0.24841562  0.49988564  0.02567384  1
  Li  Li1  1  -0.00011098  0.24841584  0.27567398  1
  Li  Li2  1  0.75158427  0.49988428  0.52567288  1
  Li  Li3  1  0.75158297  0.50011357  0.02567330  1
  Li  Li4  1  0.00011418  0.75158091  0.27567447  1
  Li  Li5  1  0.50011958  0.74841795  0.27567285  1
  Li  Li6  1  0.49988451  0.25158026  0.27567237  1
  Li  Li7  1  0.00011739  0.24841784  0.77567292  1
  Li  Li8  1  -0.00011773  0.75158137  0.77567200  1
  Li  Li9  1  0.25158510  0.00011286  0.52567339  1
  Li  Li10  1  0.50011319  0.25158363  0.77567497  1
  Li  Li11  1  0.74841573  -0.00011259  0.52567426  1
  Li  Li12  1  0.49988912  0.74841739  0.77567358  1
  Li  Li13  1  0.25158349  -0.00011632  0.02567314  1
  Li  Li14  1  0.74841846  0.00011519  0.02567366  1
  Li  Li15  1  0.24841691  0.50011709  0.52567330  1
  Br  Br16  1  0.74950298  -0.00019695  0.77562335  1
  Br  Br17  1  0.49980070  0.74950327  0.02562309  1
  Br  Br18  1  0.25049577  -0.00019765  0.27562314  1
  Br  Br19  1  0.25049686  0.00019802  0.77562291  1
  Br  Br20  1  0.50019614  0.25049658  0.02562315  1
  Br  Br21  1  0.00019748  0.24950379  0.02562331  1
  Br  Br22  1  -0.00019884  0.75049654  0.02562330  1
  Br  Br23  1  0.50019684  0.74950302  0.52562299  1
  Br  Br24  1  0.49980055  0.25049692  0.52562352  1
  Br  Br25  1  0.75049509  0.50019825  0.27562331  1
  Br  Br26  1  0.00019737  0.75049661  0.52562294  1
  Br  Br27  1  0.24950341  0.49980343  0.27562280  1
  Br  Br28  1  -0.00019835  0.24950264  0.52562333  1
  Br  Br29  1  0.75049615  0.49980281  0.77562333  1
  Br  Br30  1  0.24950243  0.50019895  0.77562341  1
  Br  Br31  1  0.74950361  0.00019886  0.27562363  1
