# generated using pymatgen
data_LiI
_symmetry_space_group_name_H-M   'P 1'
_cell_length_a   7.87249882
_cell_length_b   7.65599798
_cell_length_c   4.58821362
_cell_angle_alpha   90.00044652
_cell_angle_beta   90.00033029
_cell_angle_gamma   89.99944809
_symmetry_Int_Tables_number   1
_chemical_formula_structural   LiI
_chemical_formula_sum   'Li4 I4'
_cell_volume   276.54005434
_cell_formula_units_Z   4
loop_
 _symmetry_equiv_pos_site_id
 _symmetry_equiv_pos_as_xyz
  1  'x, y, z'
loop_
 _atom_site_type_symbol
 _atom_site_label
 _atom_site_symmetry_multiplicity
 _atom_site_fract_x
 _atom_site_fract_y
 _atom_site_fract_z
 _atom_site_occupancy
  Li  Li0  1  0.32474300  0.15577682  0.75042487  1
  Li  Li1  1  0.17525780  0.65577796  0.24954996  1
  Li  Li2  1  0.67525663  -0.15577833  0.75045487  1
  Li  Li3  1  0.82474143  0.34422304  0.24957049  1
  I  I4  1  0.67689527  0.21037728  0.74939610  1
  I  I5  1  0.82310508  0.71037923  0.25062663  1
  I  I6  1  0.32310529  0.78962131  0.74938049  1
  I  I7  1  0.17689550  0.28962269  0.25059659  1
