# generated using pymatgen
data_LiI
_symmetry_space_group_name_H-M   'P 1'
_cell_length_a   8.75062549
_cell_length_b   8.75129744
_cell_length_c   8.69683373
_cell_angle_alpha   90.00389244
_cell_angle_beta   90.00086899
_cell_angle_gamma   90.00229188
_symmetry_Int_Tables_number   1
_chemical_formula_structural   LiI
_chemical_formula_sum   'Li8 I8'
_cell_volume   665.99766765
_cell_formula_units_Z   8
loop_
 _symmetry_equiv_pos_site_id
 _symmetry_equiv_pos_as_xyz
  1  'x, y, z'
loop_
 _atom_site_type_symbol
 _atom_site_label
 _atom_site_symmetry_multiplicity
 _atom_site_fract_x
 _atom_site_fract_y
 _atom_site_fract_z
 _atom_site_occupancy
  Li  Li0  1  0.63973514  0.65154547  0.64711576  1
  Li  Li1  1  0.84844634  0.86024955  0.14710214  1
  Li  Li2  1  0.13972507  0.84846244  0.85286546  1
  Li  Li3  1  0.15158596  0.13971784  0.14712370  1
  Li  Li4  1  0.86025337  0.15153996  0.85292055  1
  Li  Li5  1  0.36026024  0.34844820  0.64707143  1
  Li  Li6  1  0.34844494  0.63974789  0.35289453  1
  Li  Li7  1  0.65154050  0.36027332  0.35287581  1
  I  I8  1  0.83535082  0.17962597  0.17323872  1
  I  I9  1  0.32033859  0.66462919  0.67320400  1
  I  I10  1  0.33536471  0.32037839  0.32679612  1
  I  I11  1  0.67964007  0.33535533  0.67321870  1
  I  I12  1  0.66466666  0.67963859  0.32680910  1
  I  I13  1  0.16464611  0.82034944  0.17320081  1
  I  I14  1  0.82036195  0.83539742  0.82679186  1
  I  I15  1  0.17963953  0.16464100  0.82677130  1
