# generated using pymatgen
data_LiBr
_symmetry_space_group_name_H-M   'P 1'
_cell_length_a   7.11114945
_cell_length_b   3.76271174
_cell_length_c   6.52859768
_cell_angle_alpha   90.00018175
_cell_angle_beta   90.00014275
_cell_angle_gamma   89.99983994
_symmetry_Int_Tables_number   1
_chemical_formula_structural   LiBr
_chemical_formula_sum   'Li4 Br4'
_cell_volume   174.68702957
_cell_formula_units_Z   4
loop_
 _symmetry_equiv_pos_site_id
 _symmetry_equiv_pos_as_xyz
  1  'x, y, z'
loop_
 _atom_site_type_symbol
 _atom_site_label
 _atom_site_symmetry_multiplicity
 _atom_site_fract_x
 _atom_site_fract_y
 _atom_site_fract_z
 _atom_site_occupancy
  Li  Li0  1  0.19285960  0.74715774  0.75233105  1
  Li  Li1  1  0.69285460  0.25284298  0.75233797  1
  Li  Li2  1  0.80714355  0.25284303  0.25233168  1
  Li  Li3  1  0.30714085  0.74715999  0.25232594  1
  Br  Br4  1  0.38527161  0.24828324  0.53689337  1
  Br  Br5  1  0.88526432  0.75171564  0.53689860  1
  Br  Br6  1  0.61473607  0.75171495  0.03689827  1
  Br  Br7  1  0.11472940  0.24828243  0.03689204  1
