# generated using pymatgen
data_LiBr
_symmetry_space_group_name_H-M   'P 1'
_cell_length_a   7.24019777
_cell_length_b   7.25030749
_cell_length_c   3.86032451
_cell_angle_alpha   90.00032392
_cell_angle_beta   89.99956385
_cell_angle_gamma   90.01090441
_symmetry_Int_Tables_number   1
_chemical_formula_structural   LiBr
_chemical_formula_sum   'Li4 Br4'
_cell_volume   202.64255926
_cell_formula_units_Z   4
loop_
 _symmetry_equiv_pos_site_id
 _symmetry_equiv_pos_as_xyz
  1  'x, y, z'
loop_
 _atom_site_type_symbol
 _atom_site_label
 _atom_site_symmetry_multiplicity
 _atom_site_fract_x
 _atom_site_fract_y
 _atom_site_fract_z
 _atom_site_occupancy
  Li  Li0  1  0.83651693  0.66118759  0.15081845  1
  Li  Li1  1  0.66204931  0.16263869  0.90437774  1
  Li  Li2  1  0.16348089  0.33880922  0.65083790  1
  Li  Li3  1  0.33795619  0.83735522  0.40433819  1
  Br  Br4  1  0.67080220  0.83000937  0.65161967  1
  Br  Br5  1  0.82920292  0.33012239  0.40520363  1
  Br  Br6  1  0.32919516  0.16999601  0.15163002  1
  Br  Br7  1  0.17079638  0.66988152  0.90516891  1
