# generated using pymatgen
data_KBr
_symmetry_space_group_name_H-M   'P 1'
_cell_length_a   6.71140593
_cell_length_b   6.71282503
_cell_length_c   6.70953225
_cell_angle_alpha   89.99999669
_cell_angle_beta   89.99998926
_cell_angle_gamma   89.99999894
_symmetry_Int_Tables_number   1
_chemical_formula_structural   KBr
_chemical_formula_sum   'K4 Br4'
_cell_volume   302.28115939
_cell_formula_units_Z   4
loop_
 _symmetry_equiv_pos_site_id
 _symmetry_equiv_pos_as_xyz
  1  'x, y, z'
loop_
 _atom_site_type_symbol
 _atom_site_label
 _atom_site_symmetry_multiplicity
 _atom_site_fract_x
 _atom_site_fract_y
 _atom_site_fract_z
 _atom_site_occupancy
  K  K0  1  0.00139626  0.24995293  0.00893760  1
  K  K1  1  0.50139627  0.75004706  0.00893804  1
  K  K2  1  -0.00139621  0.75004707  0.50893802  1
  K  K3  1  0.49860372  0.24995294  0.50893757  1
  Br  Br4  1  0.49861754  0.75013529  0.50830525  1
  Br  Br5  1  -0.00138248  0.24986471  0.50830519  1
  Br  Br6  1  0.50138243  0.24986471  0.00830532  1
  Br  Br7  1  0.00138248  0.75013529  0.00830539  1
