# generated using pymatgen
data_NaCl
_symmetry_space_group_name_H-M   'P 1'
_cell_length_a   4.02891589
_cell_length_b   4.02813877
_cell_length_c   11.35708623
_cell_angle_alpha   89.99997624
_cell_angle_beta   90.00000601
_cell_angle_gamma   90.00085169
_symmetry_Int_Tables_number   1
_chemical_formula_structural   NaCl
_chemical_formula_sum   'Na4 Cl4'
_cell_volume   184.31451901
_cell_formula_units_Z   4
loop_
 _symmetry_equiv_pos_site_id
 _symmetry_equiv_pos_as_xyz
  1  'x, y, z'
loop_
 _atom_site_type_symbol
 _atom_site_label
 _atom_site_symmetry_multiplicity
 _atom_site_fract_x
 _atom_site_fract_y
 _atom_site_fract_z
 _atom_site_occupancy
  Na  Na0  1  0.00217527  0.49867741  0.45771924  1
  Na  Na1  1  0.49828803  -0.00215558  0.20932226  1
  Na  Na2  1  -0.00217337  0.50132422  0.95771491  1
  Na  Na3  1  0.50170988  0.00215508  0.70931860  1
  Cl  Cl4  1  0.49843803  0.00131281  0.95861208  1
  Cl  Cl5  1  0.00144457  0.50148006  0.70811411  1
  Cl  Cl6  1  0.50156350  -0.00131315  0.45861636  1
  Cl  Cl7  1  -0.00144591  0.49851915  0.20811499  1
