# generated using pymatgen
data_LiBr
_symmetry_space_group_name_H-M   'P 1'
_cell_length_a   3.89041443
_cell_length_b   3.89030488
_cell_length_c   11.02260236
_cell_angle_alpha   89.99722723
_cell_angle_beta   89.99123035
_cell_angle_gamma   89.99999676
_symmetry_Int_Tables_number   1
_chemical_formula_structural   LiBr
_chemical_formula_sum   'Li4 Br4'
_cell_volume   166.82596269
_cell_formula_units_Z   4
loop_
 _symmetry_equiv_pos_site_id
 _symmetry_equiv_pos_as_xyz
  1  'x, y, z'
loop_
 _atom_site_type_symbol
 _atom_site_label
 _atom_site_symmetry_multiplicity
 _atom_site_fract_x
 _atom_site_fract_y
 _atom_site_fract_z
 _atom_site_occupancy
  Li  Li0  1  0.00493247  0.50203935  0.14041842  1
  Li  Li1  1  0.50203793  -0.00493676  0.89042076  1
  Li  Li2  1  -0.00492716  0.49796637  0.64042037  1
  Li  Li3  1  0.49795699  0.00492974  0.39041877  1
  Br  Br4  1  -0.00040769  0.49751410  0.89005509  1
  Br  Br5  1  0.49751429  0.00040860  0.64005371  1
  Br  Br6  1  0.00040794  0.50248861  0.39005732  1
  Br  Br7  1  0.50248523  -0.00041000  0.14005667  1
