# generated using pymatgen
data_LiI
_symmetry_space_group_name_H-M   'P 1'
_cell_length_a   4.70799774
_cell_length_b   7.41376333
_cell_length_c   9.16277785
_cell_angle_alpha   90.00025740
_cell_angle_beta   120.40181467
_cell_angle_gamma   89.99962238
_symmetry_Int_Tables_number   1
_chemical_formula_structural   LiI
_chemical_formula_sum   'Li4 I4'
_cell_volume   275.84177420
_cell_formula_units_Z   4
loop_
 _symmetry_equiv_pos_site_id
 _symmetry_equiv_pos_as_xyz
  1  'x, y, z'
loop_
 _atom_site_type_symbol
 _atom_site_label
 _atom_site_symmetry_multiplicity
 _atom_site_fract_x
 _atom_site_fract_y
 _atom_site_fract_z
 _atom_site_occupancy
  Li  Li0  1  0.34662807  0.14522971  0.09913150  1
  Li  Li1  1  0.65336840  0.64522919  0.40086895  1
  Li  Li2  1  0.65337161  0.85477048  0.90086827  1
  Li  Li3  1  0.34663113  0.35477057  0.59913084  1
  I  I4  1  0.31969387  0.76668143  0.06973600  1
  I  I5  1  0.68030376  0.26668273  0.43026367  1
  I  I6  1  0.68030659  0.23331841  0.93026421  1
  I  I7  1  0.31969658  0.73331747  0.56973657  1
