# generated using pymatgen
data_LiI
_symmetry_space_group_name_H-M   'P 1'
_cell_length_a   7.33923340
_cell_length_b   7.32358055
_cell_length_c   13.84216329
_cell_angle_alpha   89.99994453
_cell_angle_beta   89.99993674
_cell_angle_gamma   120.20643880
_symmetry_Int_Tables_number   1
_chemical_formula_structural   LiI
_chemical_formula_sum   'Li6 I6'
_cell_volume   642.98608190
_cell_formula_units_Z   6
loop_
 _symmetry_equiv_pos_site_id
 _symmetry_equiv_pos_as_xyz
  1  'x, y, z'
loop_
 _atom_site_type_symbol
 _atom_site_label
 _atom_site_symmetry_multiplicity
 _atom_site_fract_x
 _atom_site_fract_y
 _atom_site_fract_z
 _atom_site_occupancy
  Li  Li0  1  0.58768226  0.41770160  0.93266529  1
  Li  Li1  1  0.17052574  0.58689376  0.76592576  1
  Li  Li2  1  0.82947511  0.41310603  0.26592687  1
  Li  Li3  1  0.41702099  0.82920675  0.09936600  1
  Li  Li4  1  0.58298094  0.17079348  0.59936532  1
  Li  Li5  1  0.41231744  0.58229767  0.43266587  1
  I  I6  1  0.36816956  0.74743832  0.59793131  1
  I  I7  1  0.61991446  0.36832022  0.43123267  1
  I  I8  1  0.38008499  0.63167887  0.93123251  1
  I  I9  1  0.74810447  0.38081245  0.76468902  1
  I  I10  1  0.25189657  0.61918857  0.26468854  1
  I  I11  1  0.63182747  0.25256228  0.09793133  1
