# generated using pymatgen
data_LiI
_symmetry_space_group_name_H-M   'P 1'
_cell_length_a   12.48650719
_cell_length_b   12.48650678
_cell_length_c   7.99397048
_cell_angle_alpha   89.99998030
_cell_angle_beta   89.99997869
_cell_angle_gamma   120.06946164
_symmetry_Int_Tables_number   1
_chemical_formula_structural   LiI
_chemical_formula_sum   'Li12 I12'
_cell_volume   1078.62552690
_cell_formula_units_Z   12
loop_
 _symmetry_equiv_pos_site_id
 _symmetry_equiv_pos_as_xyz
  1  'x, y, z'
loop_
 _atom_site_type_symbol
 _atom_site_label
 _atom_site_symmetry_multiplicity
 _atom_site_fract_x
 _atom_site_fract_y
 _atom_site_fract_z
 _atom_site_occupancy
  Li  Li0  1  0.00048304  0.29140231  0.32161022  1
  Li  Li1  1  0.70898547  0.00029337  0.32162889  1
  Li  Li2  1  0.29098162  0.29135891  0.82162317  1
  Li  Li3  1  -0.00029290  0.29101585  0.82162891  1
  Li  Li4  1  0.00029250  0.70898383  0.82162903  1
  Li  Li5  1  0.29140245  0.00048206  0.82161055  1
  Li  Li6  1  0.70901770  0.70864052  0.82162315  1
  Li  Li7  1  0.70859725  -0.00048169  0.82161063  1
  Li  Li8  1  0.70864051  0.70901746  0.32162373  1
  Li  Li9  1  -0.00048257  0.70859677  0.32161112  1
  Li  Li10  1  0.29101486  -0.00029314  0.32162878  1
  Li  Li11  1  0.29135946  0.29098257  0.32162331  1
  I  I12  1  0.62145659  0.81029766  0.57153405  1
  I  I13  1  0.81093121  0.62149563  0.57153356  1
  I  I14  1  0.18894401  0.81043568  0.07153299  1
  I  I15  1  0.37850206  0.18906778  0.07153281  1
  I  I16  1  0.62149786  0.81093274  0.07153333  1
  I  I17  1  0.81029707  0.62145577  0.07153427  1
  I  I18  1  0.81105625  0.18956499  0.07153291  1
  I  I19  1  0.18970355  0.37854544  0.07153347  1
  I  I20  1  0.18956374  0.81105554  0.57153307  1
  I  I21  1  0.37854379  0.18970245  0.57153340  1
  I  I22  1  0.18906813  0.37850297  0.57153308  1
  I  I23  1  0.81043635  0.18894454  0.57153266  1
