# generated using pymatgen
data_LiI
_symmetry_space_group_name_H-M   'P 1'
_cell_length_a   8.68895951
_cell_length_b   8.68898030
_cell_length_c   13.67498174
_cell_angle_alpha   90.00033332
_cell_angle_beta   90.00001294
_cell_angle_gamma   90.00415617
_symmetry_Int_Tables_number   1
_chemical_formula_structural   LiI
_chemical_formula_sum   'Li16 I16'
_cell_volume   1032.43647675
_cell_formula_units_Z   16
loop_
 _symmetry_equiv_pos_site_id
 _symmetry_equiv_pos_as_xyz
  1  'x, y, z'
loop_
 _atom_site_type_symbol
 _atom_site_label
 _atom_site_symmetry_multiplicity
 _atom_site_fract_x
 _atom_site_fract_y
 _atom_site_fract_z
 _atom_site_occupancy
  Li  Li0  1  0.69773236  0.30212359  -0.03184575  1
  Li  Li1  1  0.80213133  0.69773104  0.21815521  1
  Li  Li2  1  0.30228624  0.30214442  0.46815404  1
  Li  Li3  1  0.30227157  0.69786748  -0.03184560  1
  Li  Li4  1  0.19787344  0.30227447  0.21815409  1
  Li  Li5  1  0.69785923  0.19771666  0.21815297  1
  Li  Li6  1  0.30214601  0.80229056  0.21815366  1
  Li  Li7  1  0.19785428  0.69771283  0.71815423  1
  Li  Li8  1  0.80214142  0.30228663  0.71815280  1
  Li  Li9  1  0.80226824  0.19787217  0.46815467  1
  Li  Li10  1  0.69786967  0.80227045  0.71815482  1
  Li  Li11  1  0.19772909  0.80212905  0.46815457  1
  Li  Li12  1  0.30212658  0.19772827  0.71815408  1
  Li  Li13  1  0.80228873  0.80214316  -0.03184629  1
  Li  Li14  1  0.19771252  0.19785359  -0.03184563  1
  Li  Li15  1  0.69771080  0.69785446  0.46815408  1
  I  I16  1  0.25003464  0.45145788  0.84356226  1
  I  I17  1  0.95146243  0.25003452  0.09356276  1
  I  I18  1  0.74995537  0.45146129  0.34355682  1
  I  I19  1  0.74996582  0.54853812  0.84356257  1
  I  I20  1  0.04854134  0.74996656  0.09356258  1
  I  I21  1  0.54854113  0.75004345  0.09355684  1
  I  I22  1  0.45146053  0.24995622  0.09355645  1
  I  I23  1  0.04853822  0.25004324  0.59355663  1
  I  I24  1  0.95145846  0.74995622  0.59355649  1
  I  I25  1  0.24996560  0.04854227  0.34356232  1
  I  I26  1  0.54853781  0.24996592  0.59356244  1
  I  I27  1  0.75003463  0.95146182  0.34356216  1
  I  I28  1  0.45145932  0.75003436  0.59356239  1
  I  I29  1  0.24995674  0.95145933  0.84355713  1
  I  I30  1  0.75004385  0.04853865  0.84355670  1
  I  I31  1  0.25004259  0.54854131  0.34355671  1
