# generated using pymatgen
data_NaI
_symmetry_space_group_name_H-M   'P 1'
_cell_length_a   8.93188786
_cell_length_b   4.14833911
_cell_length_c   7.76137689
_cell_angle_alpha   90.00101744
_cell_angle_beta   89.99994537
_cell_angle_gamma   90.00000697
_symmetry_Int_Tables_number   1
_chemical_formula_structural   NaI
_chemical_formula_sum   'Na4 I4'
_cell_volume   287.57841554
_cell_formula_units_Z   4
loop_
 _symmetry_equiv_pos_site_id
 _symmetry_equiv_pos_as_xyz
  1  'x, y, z'
loop_
 _atom_site_type_symbol
 _atom_site_label
 _atom_site_symmetry_multiplicity
 _atom_site_fract_x
 _atom_site_fract_y
 _atom_site_fract_z
 _atom_site_occupancy
  Na  Na0  1  -0.12573696  0.00535469  0.14363485  1
  Na  Na1  1  0.37426200  -0.00535667  0.14364731  1
  Na  Na2  1  0.12573774  -0.00535623  0.64364744  1
  Na  Na3  1  0.62573678  0.00535601  0.64363487  1
  I  I4  1  0.62383783  0.50287140  0.31048078  1
  I  I5  1  0.12383447  0.49712841  0.31048093  1
  I  I6  1  0.37616566  0.49713085  0.81048098  1
  I  I7  1  0.87616248  0.50287156  0.81048087  1
