# generated using pymatgen
data_LiBr
_symmetry_space_group_name_H-M   'P 1'
_cell_length_a   8.31998141
_cell_length_b   4.16020326
_cell_length_c   5.90461912
_cell_angle_alpha   89.99995729
_cell_angle_beta   90.00002468
_cell_angle_gamma   90.00003678
_symmetry_Int_Tables_number   1
_chemical_formula_structural   LiBr
_chemical_formula_sum   'Li4 Br4'
_cell_volume   204.37548209
_cell_formula_units_Z   4
loop_
 _symmetry_equiv_pos_site_id
 _symmetry_equiv_pos_as_xyz
  1  'x, y, z'
loop_
 _atom_site_type_symbol
 _atom_site_label
 _atom_site_symmetry_multiplicity
 _atom_site_fract_x
 _atom_site_fract_y
 _atom_site_fract_z
 _atom_site_occupancy
  Li  Li0  1  0.87417032  0.25025875  0.30706676  1
  Li  Li1  1  0.37417168  0.24974090  0.30706818  1
  Li  Li2  1  0.12582966  0.74974163  0.80707122  1
  Li  Li3  1  0.62582852  0.75025856  0.80706633  1
  Br  Br4  1  0.12419620  0.24929422  0.05697700  1
  Br  Br5  1  0.62419532  0.25070530  0.05697522  1
  Br  Br6  1  0.87580412  0.75070616  0.55697655  1
  Br  Br7  1  0.37580420  0.74929447  0.55697550  1
