# generated using pymatgen
data_KI
_symmetry_space_group_name_H-M   'P 1'
_cell_length_a   7.18583520
_cell_length_b   5.08413445
_cell_length_c   5.07684446
_cell_angle_alpha   90.00002889
_cell_angle_beta   90.05147143
_cell_angle_gamma   90.00000044
_symmetry_Int_Tables_number   1
_chemical_formula_structural   KI
_chemical_formula_sum   'K2 I2'
_cell_volume   185.47610301
_cell_formula_units_Z   2
loop_
 _symmetry_equiv_pos_site_id
 _symmetry_equiv_pos_as_xyz
  1  'x, y, z'
loop_
 _atom_site_type_symbol
 _atom_site_label
 _atom_site_symmetry_multiplicity
 _atom_site_fract_x
 _atom_site_fract_y
 _atom_site_fract_z
 _atom_site_occupancy
  K  K0  1  0.75074852  0.28628123  0.24546208  1
  K  K1  1  0.24925155  0.78628123  0.75453805  1
  I  I2  1  0.74933575  0.78598010  0.74527475  1
  I  I3  1  0.25066418  0.28598022  0.25472511  1
