# generated using pymatgen
data_LiI
_symmetry_space_group_name_H-M   'P 1'
_cell_length_a   4.25533949
_cell_length_b   4.25533925
_cell_length_c   12.02699646
_cell_angle_alpha   89.99999470
_cell_angle_beta   90.00000800
_cell_angle_gamma   90.00000328
_symmetry_Int_Tables_number   1
_chemical_formula_structural   LiI
_chemical_formula_sum   'Li4 I4'
_cell_volume   217.78380749
_cell_formula_units_Z   4
loop_
 _symmetry_equiv_pos_site_id
 _symmetry_equiv_pos_as_xyz
  1  'x, y, z'
loop_
 _atom_site_type_symbol
 _atom_site_label
 _atom_site_symmetry_multiplicity
 _atom_site_fract_x
 _atom_site_fract_y
 _atom_site_fract_z
 _atom_site_occupancy
  Li  Li0  1  0.99955224  0.50123213  0.57523860  1
  Li  Li1  1  0.50123279  0.00044855  0.32523607  1
  Li  Li2  1  0.00045176  0.49877284  0.07523624  1
  Li  Li3  1  0.49877141  0.99954968  0.82523598  1
  I  I4  1  0.00110385  0.50079132  0.32367107  1
  I  I5  1  0.50079071  -0.00110382  0.07367056  1
  I  I6  1  -0.00110755  0.49920593  0.82367114  1
  I  I7  1  0.49920480  0.00110338  0.57367147  1
