# generated using pymatgen
data_LiBr
_symmetry_space_group_name_H-M   'P 1'
_cell_length_a   5.51388836
_cell_length_b   5.50393536
_cell_length_c   5.49910930
_cell_angle_alpha   90.00002991
_cell_angle_beta   89.99992903
_cell_angle_gamma   89.99939899
_symmetry_Int_Tables_number   1
_chemical_formula_structural   LiBr
_chemical_formula_sum   'Li4 Br4'
_cell_volume   166.88743709
_cell_formula_units_Z   4
loop_
 _symmetry_equiv_pos_site_id
 _symmetry_equiv_pos_as_xyz
  1  'x, y, z'
loop_
 _atom_site_type_symbol
 _atom_site_label
 _atom_site_symmetry_multiplicity
 _atom_site_fract_x
 _atom_site_fract_y
 _atom_site_fract_z
 _atom_site_occupancy
  Li  Li0  1  -0.00091387  0.75139479  0.57697278  1
  Li  Li1  1  0.49908075  0.24861003  0.57697682  1
  Li  Li2  1  0.00091421  0.24863521  0.07699691  1
  Li  Li3  1  0.50091412  0.75136042  0.07701252  1
  Br  Br4  1  0.49948868  0.25020011  0.07818167  1
  Br  Br5  1  -0.00051060  0.74979720  0.07818348  1
  Br  Br6  1  0.50051377  0.74980747  0.57818258  1
  Br  Br7  1  0.00051294  0.25019477  0.57818212  1
