# generated using pymatgen
data_LiBr
_symmetry_space_group_name_H-M   'P 1'
_cell_length_a   11.36879751
_cell_length_b   9.96231914
_cell_length_c   8.61205335
_cell_angle_alpha   90.00003029
_cell_angle_beta   90.00015618
_cell_angle_gamma   89.97648772
_symmetry_Int_Tables_number   1
_chemical_formula_structural   LiBr
_chemical_formula_sum   'Li16 Br16'
_cell_volume   975.39754046
_cell_formula_units_Z   16
loop_
 _symmetry_equiv_pos_site_id
 _symmetry_equiv_pos_as_xyz
  1  'x, y, z'
loop_
 _atom_site_type_symbol
 _atom_site_label
 _atom_site_symmetry_multiplicity
 _atom_site_fract_x
 _atom_site_fract_y
 _atom_site_fract_z
 _atom_site_occupancy
  Li  Li0  1  0.64372815  0.00062058  0.92544718  1
  Li  Li1  1  0.35626995  -0.00062058  0.92544753  1
  Li  Li2  1  0.60631402  0.25060226  0.17552516  1
  Li  Li3  1  0.85627111  -0.00061901  0.42544761  1
  Li  Li4  1  0.10631526  0.25060194  0.67552418  1
  Li  Li5  1  0.89368849  0.24939679  0.17552272  1
  Li  Li6  1  0.14372762  0.00062073  0.42544595  1
  Li  Li7  1  0.10631098  0.75060137  0.17552603  1
  Li  Li8  1  0.89368492  0.74940018  0.67552542  1
  Li  Li9  1  0.14372958  0.50061978  0.92544724  1
  Li  Li10  1  0.85627341  0.49938014  0.92544746  1
  Li  Li11  1  0.60631176  0.75060164  0.67552397  1
  Li  Li12  1  0.39368768  0.24939786  0.67552598  1
  Li  Li13  1  0.39368574  0.74939482  0.17552317  1
  Li  Li14  1  0.64373150  0.50062199  0.42544529  1
  Li  Li15  1  0.35627289  0.49937930  0.42544737  1
  Br  Br16  1  0.49967354  0.19784289  0.92624008  1
  Br  Br17  1  0.50032397  0.80215552  0.92623682  1
  Br  Br18  1  0.75039219  0.44782459  0.17618111  1
  Br  Br19  1  0.00032275  0.80215681  0.42624022  1
  Br  Br20  1  0.25039218  0.44782543  0.67618320  1
  Br  Br21  1  0.74960900  0.05217460  0.17618039  1
  Br  Br22  1  -0.00032565  0.19784405  0.42623817  1
  Br  Br23  1  0.25039018  -0.05217687  0.17618142  1
  Br  Br24  1  0.74960882  0.55217657  0.67618285  1
  Br  Br25  1  -0.00032438  0.69784525  0.92623631  1
  Br  Br26  1  0.00032540  0.30215530  0.92623709  1
  Br  Br27  1  0.75038801  -0.05217277  0.67618280  1
  Br  Br28  1  0.24961037  0.05217501  0.67618041  1
  Br  Br29  1  0.24960685  0.55217403  0.17618403  1
  Br  Br30  1  0.49967608  0.69784409  0.42623597  1
  Br  Br31  1  0.50032762  0.30215570  0.42624049  1
