# generated using pymatgen
data_NaI
_symmetry_space_group_name_H-M   'P 1'
_cell_length_a   8.76971133
_cell_length_b   5.16018873
_cell_length_c   8.10539913
_cell_angle_alpha   90.00059369
_cell_angle_beta   90.00175400
_cell_angle_gamma   89.99991898
_symmetry_Int_Tables_number   1
_chemical_formula_structural   NaI
_chemical_formula_sum   'Na4 I4'
_cell_volume   366.79658968
_cell_formula_units_Z   4
loop_
 _symmetry_equiv_pos_site_id
 _symmetry_equiv_pos_as_xyz
  1  'x, y, z'
loop_
 _atom_site_type_symbol
 _atom_site_label
 _atom_site_symmetry_multiplicity
 _atom_site_fract_x
 _atom_site_fract_y
 _atom_site_fract_z
 _atom_site_occupancy
  Na  Na0  1  0.09083752  0.24909781  0.89809466  1
  Na  Na1  1  0.59083643  0.75089882  0.89809175  1
  Na  Na2  1  0.90916349  0.75089620  0.39811140  1
  Na  Na3  1  0.40916284  0.24910249  0.39811339  1
  I  I4  1  0.42690360  0.25064205  0.01489857  1
  I  I5  1  0.92690324  0.74936092  0.01489745  1
  I  I6  1  0.57309623  0.74936456  0.51488389  1
  I  I7  1  0.07309664  0.25063715  0.51488477  1
