# generated using pymatgen
data_NaCl
_symmetry_space_group_name_H-M   'P 1'
_cell_length_a   5.68411899
_cell_length_b   5.69048366
_cell_length_c   5.69758148
_cell_angle_alpha   90.00000016
_cell_angle_beta   90.17832073
_cell_angle_gamma   89.99999957
_symmetry_Int_Tables_number   1
_chemical_formula_structural   NaCl
_chemical_formula_sum   'Na4 Cl4'
_cell_volume   184.28958090
_cell_formula_units_Z   4
loop_
 _symmetry_equiv_pos_site_id
 _symmetry_equiv_pos_as_xyz
  1  'x, y, z'
loop_
 _atom_site_type_symbol
 _atom_site_label
 _atom_site_symmetry_multiplicity
 _atom_site_fract_x
 _atom_site_fract_y
 _atom_site_fract_z
 _atom_site_occupancy
  Na  Na0  1  0.40712184  0.24932575  0.57926821  1
  Na  Na1  1  0.90712180  0.74932578  0.57926818  1
  Na  Na2  1  0.40712120  0.75067421  0.07926714  1
  Na  Na3  1  0.90712126  0.25067426  0.07926713  1
  Cl  Cl4  1  0.40627161  0.74925713  0.57863982  1
  Cl  Cl5  1  0.90627165  0.24925716  0.57863981  1
  Cl  Cl6  1  0.40627110  0.25074284  0.07864189  1
  Cl  Cl7  1  0.90627105  0.75074288  0.07864187  1
