# generated using pymatgen
data_LiBr
_symmetry_space_group_name_H-M   'P 1'
_cell_length_a   7.82059679
_cell_length_b   7.82059644
_cell_length_c   10.88024700
_cell_angle_alpha   89.99999364
_cell_angle_beta   90.00000246
_cell_angle_gamma   90.00003765
_symmetry_Int_Tables_number   1
_chemical_formula_structural   LiBr
_chemical_formula_sum   'Li16 Br16'
_cell_volume   665.45474478
_cell_formula_units_Z   16
loop_
 _symmetry_equiv_pos_site_id
 _symmetry_equiv_pos_as_xyz
  1  'x, y, z'
loop_
 _atom_site_type_symbol
 _atom_site_label
 _atom_site_symmetry_multiplicity
 _atom_site_fract_x
 _atom_site_fract_y
 _atom_site_fract_z
 _atom_site_occupancy
  Li  Li0  1  0.00014863  0.75080545  0.24136083  1
  Li  Li1  1  0.25080720  0.00014847  0.49136056  1
  Li  Li2  1  -0.00014688  0.75080576  0.74136093  1
  Li  Li3  1  -0.00014844  0.24919456  0.24136167  1
  Li  Li4  1  0.74919303  -0.00014910  0.49136121  1
  Li  Li5  1  0.24919154  0.50014760  0.49136060  1
  Li  Li6  1  0.75080692  0.49985244  0.49136055  1
  Li  Li7  1  0.74919251  0.00014683  -0.00863930  1
  Li  Li8  1  0.25080581  -0.00014727  -0.00863888  1
  Li  Li9  1  0.49985040  0.74919370  0.74136163  1
  Li  Li10  1  0.24919307  0.49985129  -0.00863834  1
  Li  Li11  1  0.50014798  0.25080617  0.74136136  1
  Li  Li12  1  0.75080681  0.50014876  -0.00863942  1
  Li  Li13  1  0.49985448  0.25080659  0.24136140  1
  Li  Li14  1  0.50014818  0.74919352  0.24136127  1
  Li  Li15  1  0.00014735  0.24919250  0.74136139  1
  Br  Br16  1  0.74955235  -0.00082933  0.24193680  1
  Br  Br17  1  0.49916995  0.74955218  0.49193665  1
  Br  Br18  1  0.25044818  -0.00082911  0.74193689  1
  Br  Br19  1  0.25044955  0.00083026  0.24193691  1
  Br  Br20  1  0.50082998  0.25044811  0.49193676  1
  Br  Br21  1  0.00082980  0.24955153  0.49193678  1
  Br  Br22  1  -0.00082937  0.75044787  0.49193673  1
  Br  Br23  1  0.50082888  0.74955155  0.99193704  1
  Br  Br24  1  0.49917058  0.25044941  0.99193694  1
  Br  Br25  1  0.75044770  0.50082953  0.74193733  1
  Br  Br26  1  0.00083019  0.75044913  0.99193710  1
  Br  Br27  1  0.24955117  0.49917051  0.74193712  1
  Br  Br28  1  -0.00082973  0.24955137  0.99193725  1
  Br  Br29  1  0.75044894  0.49917072  0.24193673  1
  Br  Br30  1  0.24955216  0.50082922  0.24193698  1
  Br  Br31  1  0.74955106  0.00082977  0.74193686  1
