# generated using pymatgen
data_LiI
_symmetry_space_group_name_H-M   'P 1'
_cell_length_a   12.30724752
_cell_length_b   12.30694208
_cell_length_c   12.09709491
_cell_angle_alpha   90.00071291
_cell_angle_beta   89.99873548
_cell_angle_gamma   120.00384951
_symmetry_Int_Tables_number   1
_chemical_formula_structural   LiI
_chemical_formula_sum   'Li18 I18'
_cell_volume   1586.74070661
_cell_formula_units_Z   18
loop_
 _symmetry_equiv_pos_site_id
 _symmetry_equiv_pos_as_xyz
  1  'x, y, z'
loop_
 _atom_site_type_symbol
 _atom_site_label
 _atom_site_symmetry_multiplicity
 _atom_site_fract_x
 _atom_site_fract_y
 _atom_site_fract_z
 _atom_site_occupancy
  Li  Li0  1  0.46172939  0.10143480  0.42586703  1
  Li  Li1  1  0.02694012  0.79505575  0.90748122  1
  Li  Li2  1  0.53826742  0.89856388  0.57413392  1
  Li  Li3  1  0.63970822  0.53826919  0.42587060  1
  Li  Li4  1  0.76811921  -0.02692743  0.90748988  1
  Li  Li5  1  0.10143983  0.63970384  0.57413811  1
  Li  Li6  1  0.56528436  0.69368643  0.75917845  1
  Li  Li7  1  0.89855984  0.36029469  0.42586196  1
  Li  Li8  1  0.36029311  0.46173231  0.57412981  1
  Li  Li9  1  0.43471619  0.30631390  0.24082192  1
  Li  Li10  1  0.23188135  0.02692733  0.09250947  1
  Li  Li11  1  0.30631335  0.87160080  0.75917591  1
  Li  Li12  1  0.69368675  0.12839870  0.24082014  1
  Li  Li13  1  -0.02694073  0.20494280  0.09252324  1
  Li  Li14  1  0.12840478  0.43471307  0.75917836  1
  Li  Li15  1  0.87159604  0.56528694  0.24081892  1
  Li  Li16  1  0.20494912  0.23188799  0.90747783  1
  Li  Li17  1  0.79505143  0.76811201  0.09252145  1
  I  I18  1  0.79264037  0.76406470  0.86175750  1
  I  I19  1  0.69515229  0.12594464  0.47152304  1
  I  I20  1  0.20736153  0.23593602  0.13823961  1
  I  I21  1  0.97143381  0.20737226  0.86176544  1
  I  I22  1  0.43077941  0.30483561  0.47152853  1
  I  I23  1  0.76405865  0.97142107  0.13823625  1
  I  I24  1  -0.09741692  0.36184470  0.19516296  1
  I  I25  1  0.23594128  0.02857840  0.86176015  1
  I  I26  1  0.02856370  0.79262966  0.13823238  1
  I  I27  1  0.09741632  0.63815442  0.80484030  1
  I  I28  1  0.56922088  0.69516468  0.52847279  1
  I  I29  1  0.63816694  0.54074071  0.19516726  1
  I  I30  1  0.36183446  0.45926028  0.80483493  1
  I  I31  1  0.30484858  0.87405378  0.52847765  1
  I  I32  1  0.45925918  0.09742000  0.19516354  1
  I  I33  1  0.54074061  -0.09741975  0.80483815  1
  I  I34  1  0.87405680  0.56921097  0.47152024  1
  I  I35  1  0.12594235  0.43079086  0.52848106  1
