# generated using pymatgen
data_LiBr
_symmetry_space_group_name_H-M   'P 1'
_cell_length_a   15.38168332
_cell_length_b   10.64490782
_cell_length_c   5.32281414
_cell_angle_alpha   90.00016712
_cell_angle_beta   90.00169975
_cell_angle_gamma   90.00001647
_symmetry_Int_Tables_number   1
_chemical_formula_structural   LiBr
_chemical_formula_sum   'Li16 Br16'
_cell_volume   871.53949388
_cell_formula_units_Z   16
loop_
 _symmetry_equiv_pos_site_id
 _symmetry_equiv_pos_as_xyz
  1  'x, y, z'
loop_
 _atom_site_type_symbol
 _atom_site_label
 _atom_site_symmetry_multiplicity
 _atom_site_fract_x
 _atom_site_fract_y
 _atom_site_fract_z
 _atom_site_occupancy
  Li  Li0  1  0.42755665  0.37514544  0.00138172  1
  Li  Li1  1  0.57244433  0.12485228  0.00139127  1
  Li  Li2  1  0.57244780  0.37514259  0.50139320  1
  Li  Li3  1  0.07244315  0.62484961  0.50138720  1
  Li  Li4  1  0.07244634  0.87514560  0.00138940  1
  Li  Li5  1  0.07244338  0.37515268  0.99862473  1
  Li  Li6  1  0.92755451  0.87514250  0.50137802  1
  Li  Li7  1  0.92755455  0.12485890  0.99860706  1
  Li  Li8  1  0.92755743  0.62485420  0.00137391  1
  Li  Li9  1  0.07244533  0.12485197  0.49862126  1
  Li  Li10  1  0.92755687  0.37514476  0.49861358  1
  Li  Li11  1  0.42755674  0.62485452  0.49860536  1
  Li  Li12  1  0.57244444  0.87514745  0.49862331  1
  Li  Li13  1  0.42755774  0.12485329  0.50138034  1
  Li  Li14  1  0.57244828  0.62485812  0.99861943  1
  Li  Li15  1  0.42755763  0.87514657  0.99861005  1
  Br  Br16  1  0.40258065  0.37486694  0.50029866  1
  Br  Br17  1  0.59741509  0.12513998  0.50031558  1
  Br  Br18  1  0.59742092  0.37486164  0.00031960  1
  Br  Br19  1  0.09741173  0.62513134  0.00030828  1
  Br  Br20  1  0.09741877  0.87487332  0.50031346  1
  Br  Br21  1  0.09741471  0.37486837  0.49970865  1
  Br  Br22  1  0.90257654  0.87485870  0.00029696  1
  Br  Br23  1  0.90257994  0.12514100  0.49968346  1
  Br  Br24  1  0.90257959  0.62514075  0.50029509  1
  Br  Br25  1  0.09742150  0.12512672  -0.00029854  1
  Br  Br26  1  0.90258236  0.37485925  -0.00031328  1
  Br  Br27  1  0.40258020  0.62513325  -0.00031608  1
  Br  Br28  1  0.59741510  0.87486064  -0.00029544  1
  Br  Br29  1  0.40258359  0.12513745  0.00029669  1
  Br  Br30  1  0.59742093  0.62513811  0.49969963  1
  Br  Br31  1  0.40258321  0.87486206  0.49968740  1
