# generated using pymatgen
data_LiBr
_symmetry_space_group_name_H-M   'P 1'
_cell_length_a   15.72346977
_cell_length_b   13.14269545
_cell_length_c   4.00790286
_cell_angle_alpha   89.99980815
_cell_angle_beta   90.00034458
_cell_angle_gamma   90.02402913
_symmetry_Int_Tables_number   1
_chemical_formula_structural   LiBr
_chemical_formula_sum   'Li16 Br16'
_cell_volume   828.22814181
_cell_formula_units_Z   16
loop_
 _symmetry_equiv_pos_site_id
 _symmetry_equiv_pos_as_xyz
  1  'x, y, z'
loop_
 _atom_site_type_symbol
 _atom_site_label
 _atom_site_symmetry_multiplicity
 _atom_site_fract_x
 _atom_site_fract_y
 _atom_site_fract_z
 _atom_site_occupancy
  Li  Li0  1  0.91524265  0.26810797  0.31035964  1
  Li  Li1  1  0.08475500  0.73189010  0.31037405  1
  Li  Li2  1  0.33460301  0.51834758  0.56064852  1
  Li  Li3  1  0.58475712  0.73189210  0.81036864  1
  Li  Li4  1  0.83460312  0.51834695  0.06065225  1
  Li  Li5  1  0.16539600  -0.01834694  0.56063868  1
  Li  Li6  1  0.41524250  0.26810779  0.81036285  1
  Li  Li7  1  0.83460147  0.01834792  0.56064011  1
  Li  Li8  1  0.16539883  0.48165079  0.06064585  1
  Li  Li9  1  0.41524357  0.76810876  0.31036696  1
  Li  Li10  1  0.58475509  0.23189252  0.31036442  1
  Li  Li11  1  0.33460232  0.01834561  0.06064238  1
  Li  Li12  1  0.66539705  -0.01834760  0.06063775  1
  Li  Li13  1  0.66539800  0.48165246  0.56065111  1
  Li  Li14  1  0.91524614  0.76811137  0.81037076  1
  Li  Li15  1  0.08475559  0.23189291  0.81036293  1
  Br  Br16  1  0.56444151  0.84993039  0.30291299  1
  Br  Br17  1  0.43555835  0.15006843  0.30290729  1
  Br  Br18  1  0.68555077  0.10001309  0.55292121  1
  Br  Br19  1  0.93555920  0.15006949  0.80290519  1
  Br  Br20  1  0.18555171  0.10001406  0.05292117  1
  Br  Br21  1  0.81444934  0.39998642  0.55293952  1
  Br  Br22  1  0.06444346  0.84992963  0.80291676  1
  Br  Br23  1  0.18555142  0.60001130  0.55293039  1
  Br  Br24  1  0.81444874  0.89998802  0.05292871  1
  Br  Br25  1  0.06444045  0.34993122  0.30290705  1
  Br  Br26  1  0.93555805  0.65007173  0.30291644  1
  Br  Br27  1  0.68555167  0.60001268  0.05293384  1
  Br  Br28  1  0.31445045  0.39998695  0.05293632  1
  Br  Br29  1  0.31444802  0.89998589  0.55292831  1
  Br  Br30  1  0.56444002  0.34993063  0.80290796  1
  Br  Br31  1  0.43555937  0.65006975  0.80291353  1
