# generated using pymatgen
data_LiBr
_symmetry_space_group_name_H-M   'P 1'
_cell_length_a   16.12597485
_cell_length_b   16.12646319
_cell_length_c   4.36172877
_cell_angle_alpha   90.00628778
_cell_angle_beta   89.99702998
_cell_angle_gamma   120.01602989
_symmetry_Int_Tables_number   1
_chemical_formula_structural   LiBr
_chemical_formula_sum   'Li18 Br18'
_cell_volume   982.16446994
_cell_formula_units_Z   18
loop_
 _symmetry_equiv_pos_site_id
 _symmetry_equiv_pos_as_xyz
  1  'x, y, z'
loop_
 _atom_site_type_symbol
 _atom_site_label
 _atom_site_symmetry_multiplicity
 _atom_site_fract_x
 _atom_site_fract_y
 _atom_site_fract_z
 _atom_site_occupancy
  Li  Li0  1  0.92113969  0.53594710  0.06881625  1
  Li  Li1  1  0.05186731  0.25444778  0.26471701  1
  Li  Li2  1  0.07886150  0.46405532  0.93117963  1
  Li  Li3  1  0.61480002  0.07888631  0.06861722  1
  Li  Li4  1  0.20262199  0.94817678  0.26457207  1
  Li  Li5  1  0.53595420  0.61483987  0.93123432  1
  Li  Li6  1  0.13071030  0.71849057  0.40209576  1
  Li  Li7  1  0.46404556  0.38515746  0.06875891  1
  Li  Li8  1  0.38519913  0.92111164  0.93139020  1
  Li  Li9  1  0.86928499  0.28150660  0.59790479  1
  Li  Li10  1  0.79737903  0.05182604  -0.26456805  1
  Li  Li11  1  0.28146768  0.41222102  0.40194500  1
  Li  Li12  1  0.71853322  0.58777989  0.59805114  1
  Li  Li13  1  0.94813369  0.74555331  -0.26472058  1
  Li  Li14  1  0.58780599  0.86928030  0.40215227  1
  Li  Li15  1  0.41219405  0.13071971  0.59784858  1
  Li  Li16  1  0.74552824  0.79738736  0.26451772  1
  Li  Li17  1  0.25447178  0.20261333  -0.26451849  1
  Br  Br18  1  0.89774171  0.37127804  0.09000080  1
  Br  Br19  1  0.19317726  0.23110784  0.24345787  1
  Br  Br20  1  0.10225949  0.62872299  -0.08999641  1
  Br  Br21  1  0.47348847  0.10222432  0.08987514  1
  Br  Br22  1  0.03794716  0.80676997  0.24323561  1
  Br  Br23  1  0.37128175  0.47343685  -0.09010001  1
  Br  Br24  1  0.29538529  0.85989652  0.42343487  1
  Br  Br25  1  0.62871958  0.52656275  0.09009501  1
  Br  Br26  1  0.52651060  0.89777341  -0.08987053  1
  Br  Br27  1  0.70461368  0.14010333  0.57657308  1
  Br  Br28  1  -0.03794765  0.19323118  0.75676180  1
  Br  Br29  1  0.14015747  0.43555999  0.42320626  1
  Br  Br30  1  0.85984464  0.56444102  0.57679244  1
  Br  Br31  1  0.80682237  0.76889239  0.75654189  1
  Br  Br32  1  0.56440820  0.70461039  0.42333040  1
  Br  Br33  1  0.43559233  0.29538828  0.57666633  1
  Br  Br34  1  0.76892585  -0.03794358  0.24333832  1
  Br  Br35  1  0.23107342  0.03794392  0.75666340  1
