# generated using pymatgen
data_NaBr
_symmetry_space_group_name_H-M   'P 1'
_cell_length_a   7.26969812
_cell_length_b   4.20103233
_cell_length_c   7.19954114
_cell_angle_alpha   90.00004046
_cell_angle_beta   90.00004729
_cell_angle_gamma   90.00001063
_symmetry_Int_Tables_number   1
_chemical_formula_structural   NaBr
_chemical_formula_sum   'Na4 Br4'
_cell_volume   219.87569138
_cell_formula_units_Z   4
loop_
 _symmetry_equiv_pos_site_id
 _symmetry_equiv_pos_as_xyz
  1  'x, y, z'
loop_
 _atom_site_type_symbol
 _atom_site_label
 _atom_site_symmetry_multiplicity
 _atom_site_fract_x
 _atom_site_fract_y
 _atom_site_fract_z
 _atom_site_occupancy
  Na  Na0  1  0.25115952  0.75040708  0.88811561  1
  Na  Na1  1  0.75115861  0.24959299  0.88811358  1
  Na  Na2  1  0.74884104  0.24959361  0.38811501  1
  Na  Na3  1  0.24884025  0.75040532  0.38811709  1
  Br  Br4  1  0.58257873  0.75031724  0.63718679  1
  Br  Br5  1  0.08257713  0.24968364  0.63718715  1
  Br  Br6  1  0.41742306  0.24968240  0.13718628  1
  Br  Br7  1  0.91742166  0.75031771  0.13718554  1
