# generated using pymatgen
data_NaBr
_symmetry_space_group_name_H-M   'P 1'
_cell_length_a   6.03569741
_cell_length_b   6.03851831
_cell_length_c   6.02051775
_cell_angle_alpha   90.00002352
_cell_angle_beta   90.05650707
_cell_angle_gamma   89.99996956
_symmetry_Int_Tables_number   1
_chemical_formula_structural   NaBr
_chemical_formula_sum   'Na4 Br4'
_cell_volume   219.42771258
_cell_formula_units_Z   4
loop_
 _symmetry_equiv_pos_site_id
 _symmetry_equiv_pos_as_xyz
  1  'x, y, z'
loop_
 _atom_site_type_symbol
 _atom_site_label
 _atom_site_symmetry_multiplicity
 _atom_site_fract_x
 _atom_site_fract_y
 _atom_site_fract_z
 _atom_site_occupancy
  Na  Na0  1  0.55349170  0.25147272  0.62295173  1
  Na  Na1  1  0.05349175  0.75147309  0.62295240  1
  Na  Na2  1  0.55349167  0.74852697  0.12295316  1
  Na  Na3  1  0.05349172  0.24852728  0.12295283  1
  Br  Br4  1  0.05401453  0.25122753  0.62160440  1
  Br  Br5  1  0.55401455  0.75122730  0.62160457  1
  Br  Br6  1  0.05401448  0.74877267  0.12160387  1
  Br  Br7  1  0.55401449  0.24877245  0.12160349  1
