# generated using pymatgen
data_NaI
_symmetry_space_group_name_H-M   'P 1'
_cell_length_a   7.85224997
_cell_length_b   4.56240454
_cell_length_c   7.75140152
_cell_angle_alpha   90.00033066
_cell_angle_beta   90.00004088
_cell_angle_gamma   90.00037733
_symmetry_Int_Tables_number   1
_chemical_formula_structural   NaI
_chemical_formula_sum   'Na4 I4'
_cell_volume   277.69505172
_cell_formula_units_Z   4
loop_
 _symmetry_equiv_pos_site_id
 _symmetry_equiv_pos_as_xyz
  1  'x, y, z'
loop_
 _atom_site_type_symbol
 _atom_site_label
 _atom_site_symmetry_multiplicity
 _atom_site_fract_x
 _atom_site_fract_y
 _atom_site_fract_z
 _atom_site_occupancy
  Na  Na0  1  0.24940962  0.24919703  0.61458719  1
  Na  Na1  1  0.74938009  -0.24919128  0.61459079  1
  Na  Na2  1  0.75062196  -0.24919232  0.11458746  1
  Na  Na3  1  0.25059324  0.24919770  0.11458454  1
  I  I4  1  0.91590715  0.25086171  0.36559433  1
  I  I5  1  0.41590993  0.74913505  0.36557154  1
  I  I6  1  0.08408706  0.74913553  0.86557134  1
  I  I7  1  0.58409095  0.25085657  0.86559609  1
