# generated using pymatgen
data_NaI
_symmetry_space_group_name_H-M   'P 1'
_cell_length_a   7.86225012
_cell_length_b   4.57034122
_cell_length_c   7.75319630
_cell_angle_alpha   90.00178363
_cell_angle_beta   89.99896914
_cell_angle_gamma   89.99903929
_symmetry_Int_Tables_number   1
_chemical_formula_structural   NaI
_chemical_formula_sum   'Na4 I4'
_cell_volume   278.59688810
_cell_formula_units_Z   4
loop_
 _symmetry_equiv_pos_site_id
 _symmetry_equiv_pos_as_xyz
  1  'x, y, z'
loop_
 _atom_site_type_symbol
 _atom_site_label
 _atom_site_symmetry_multiplicity
 _atom_site_fract_x
 _atom_site_fract_y
 _atom_site_fract_z
 _atom_site_occupancy
  Na  Na0  1  0.75110754  0.74865379  0.87241804  1
  Na  Na1  1  0.25110638  0.25136401  0.87241724  1
  Na  Na2  1  0.24889872  0.25136398  0.37241093  1
  Na  Na3  1  0.74889610  0.74865006  0.37241190  1
  I  I4  1  0.91580893  0.24866299  0.62304256  1
  I  I5  1  0.41581343  0.75131222  0.62304326  1
  I  I6  1  0.08418319  0.75133055  0.12304365  1
  I  I7  1  0.58418573  0.24866240  0.12304345  1
