# generated using pymatgen
data_LiI
_symmetry_space_group_name_H-M   'P 1'
_cell_length_a   6.31814687
_cell_length_b   5.99535648
_cell_length_c   5.80840227
_cell_angle_alpha   90.00000966
_cell_angle_beta   89.93622904
_cell_angle_gamma   90.00003824
_symmetry_Int_Tables_number   1
_chemical_formula_structural   LiI
_chemical_formula_sum   'Li4 I4'
_cell_volume   220.01948602
_cell_formula_units_Z   4
loop_
 _symmetry_equiv_pos_site_id
 _symmetry_equiv_pos_as_xyz
  1  'x, y, z'
loop_
 _atom_site_type_symbol
 _atom_site_label
 _atom_site_symmetry_multiplicity
 _atom_site_fract_x
 _atom_site_fract_y
 _atom_site_fract_z
 _atom_site_occupancy
  Li  Li0  1  0.17595785  0.24916440  0.85437293  1
  Li  Li1  1  0.67595968  0.74916663  0.85437520  1
  Li  Li2  1  0.17595722  0.75083652  0.35436884  1
  Li  Li3  1  0.67595945  0.25083388  0.35437068  1
  I  I4  1  0.21840551  0.25008908  0.35427529  1
  I  I5  1  0.71840490  0.75008900  0.35427644  1
  I  I6  1  0.21840542  0.74991019  0.85427473  1
  I  I7  1  0.71840501  0.24991030  0.85427609  1
