# generated using pymatgen
data_NaI
_symmetry_space_group_name_H-M   'P 1'
_cell_length_a   7.72877551
_cell_length_b   7.91064471
_cell_length_c   4.55249484
_cell_angle_alpha   89.99898143
_cell_angle_beta   90.00010509
_cell_angle_gamma   90.00023952
_symmetry_Int_Tables_number   1
_chemical_formula_structural   NaI
_chemical_formula_sum   'Na4 I4'
_cell_volume   278.33770031
_cell_formula_units_Z   4
loop_
 _symmetry_equiv_pos_site_id
 _symmetry_equiv_pos_as_xyz
  1  'x, y, z'
loop_
 _atom_site_type_symbol
 _atom_site_label
 _atom_site_symmetry_multiplicity
 _atom_site_fract_x
 _atom_site_fract_y
 _atom_site_fract_z
 _atom_site_occupancy
  Na  Na0  1  0.49783111  0.25002480  0.00501640  1
  Na  Na1  1  0.99783089  0.24997516  0.00501873  1
  Na  Na2  1  0.50216949  0.74997519  0.50493540  1
  Na  Na3  1  0.00216973  0.75002433  0.50493249  1
  I  I4  1  0.25002540  0.91633975  0.00480236  1
  I  I5  1  0.75002561  0.58366084  0.00479507  1
  I  I6  1  0.74997400  0.08366031  0.50481821  1
  I  I7  1  0.24997378  0.41633961  0.50482550  1
