# generated using pymatgen
data_LiI
_symmetry_space_group_name_H-M   'P 1'
_cell_length_a   7.33042155
_cell_length_b   4.23890064
_cell_length_c   6.95761889
_cell_angle_alpha   90.00003623
_cell_angle_beta   89.99930105
_cell_angle_gamma   90.00013123
_symmetry_Int_Tables_number   1
_chemical_formula_structural   LiI
_chemical_formula_sum   'Li4 I4'
_cell_volume   216.19359491
_cell_formula_units_Z   4
loop_
 _symmetry_equiv_pos_site_id
 _symmetry_equiv_pos_as_xyz
  1  'x, y, z'
loop_
 _atom_site_type_symbol
 _atom_site_label
 _atom_site_symmetry_multiplicity
 _atom_site_fract_x
 _atom_site_fract_y
 _atom_site_fract_z
 _atom_site_occupancy
  Li  Li0  1  0.00067363  0.50162075  0.48581524  1
  Li  Li1  1  0.50068322  -0.00161424  0.48581396  1
  Li  Li2  1  0.99932480  0.49837886  -0.01418453  1
  Li  Li3  1  0.49931558  0.00161474  -0.01418378  1
  I  I4  1  0.83361071  -0.00083162  0.23675456  1
  I  I5  1  0.33361047  0.50083726  0.23674595  1
  I  I6  1  0.16639092  0.00083002  0.73675459  1
  I  I7  1  0.66639067  0.49916423  0.73674589  1
