# generated using pymatgen
data_LiI
_symmetry_space_group_name_H-M   'P 1'
_cell_length_a   9.32457103
_cell_length_b   4.67995373
_cell_length_c   6.04495862
_cell_angle_alpha   90.00000948
_cell_angle_beta   90.00001061
_cell_angle_gamma   90.00002074
_symmetry_Int_Tables_number   1
_chemical_formula_structural   LiI
_chemical_formula_sum   'Li4 I4'
_cell_volume   263.79329498
_cell_formula_units_Z   4
loop_
 _symmetry_equiv_pos_site_id
 _symmetry_equiv_pos_as_xyz
  1  'x, y, z'
loop_
 _atom_site_type_symbol
 _atom_site_label
 _atom_site_symmetry_multiplicity
 _atom_site_fract_x
 _atom_site_fract_y
 _atom_site_fract_z
 _atom_site_occupancy
  Li  Li0  1  0.62543129  0.24893256  0.57762610  1
  Li  Li1  1  0.12543086  0.25106760  0.57762593  1
  Li  Li2  1  0.37456869  0.75106729  0.07762575  1
  Li  Li3  1  0.87456924  0.74893239  0.07762710  1
  I  I4  1  0.37527972  0.25170222  0.32615062  1
  I  I5  1  0.87528013  0.24829813  0.32614958  1
  I  I6  1  0.62472032  0.74829782  0.82615072  1
  I  I7  1  0.12471976  0.75170199  0.82614956  1
