# generated using pymatgen
data_LiI
_symmetry_space_group_name_H-M   'P 1'
_cell_length_a   7.55929977
_cell_length_b   7.58844251
_cell_length_c   4.82102484
_cell_angle_alpha   90.00013037
_cell_angle_beta   89.99963847
_cell_angle_gamma   89.99956567
_symmetry_Int_Tables_number   1
_chemical_formula_structural   LiI
_chemical_formula_sum   'Li4 I4'
_cell_volume   276.54995027
_cell_formula_units_Z   4
loop_
 _symmetry_equiv_pos_site_id
 _symmetry_equiv_pos_as_xyz
  1  'x, y, z'
loop_
 _atom_site_type_symbol
 _atom_site_label
 _atom_site_symmetry_multiplicity
 _atom_site_fract_x
 _atom_site_fract_y
 _atom_site_fract_z
 _atom_site_occupancy
  Li  Li0  1  -0.15385538  0.86023073  0.74838724  1
  Li  Li1  1  0.15386040  0.36022782  0.75161295  1
  Li  Li2  1  0.65385965  0.13977121  0.24839321  1
  Li  Li3  1  0.34613511  0.63977413  0.25160547  1
  I  I4  1  0.68562969  0.77095642  0.24828286  1
  I  I5  1  0.31436881  0.27095681  0.25171709  1
  I  I6  1  0.81436984  0.22904197  0.74828364  1
  I  I7  1  0.18563188  0.72904091  0.75171754  1
