# generated using pymatgen
data_LiBr
_symmetry_space_group_name_H-M   'P 1'
_cell_length_a   3.89723335
_cell_length_b   3.89772973
_cell_length_c   10.99848276
_cell_angle_alpha   90.00002149
_cell_angle_beta   90.04887940
_cell_angle_gamma   90.00108738
_symmetry_Int_Tables_number   1
_chemical_formula_structural   LiBr
_chemical_formula_sum   'Li4 Br4'
_cell_volume   167.07087696
_cell_formula_units_Z   4
loop_
 _symmetry_equiv_pos_site_id
 _symmetry_equiv_pos_as_xyz
  1  'x, y, z'
loop_
 _atom_site_type_symbol
 _atom_site_label
 _atom_site_symmetry_multiplicity
 _atom_site_fract_x
 _atom_site_fract_y
 _atom_site_fract_z
 _atom_site_occupancy
  Li  Li0  1  0.75032695  0.24940589  0.87458422  1
  Li  Li1  1  0.24967566  -0.25060109  0.62541851  1
  Li  Li2  1  0.24967304  0.75059418  0.12541580  1
  Li  Li3  1  0.75032424  0.25060116  0.37458148  1
  Br  Br4  1  0.24977797  0.75096872  0.87510649  1
  Br  Br5  1  0.75021362  0.25096112  0.62489408  1
  Br  Br6  1  0.75022212  0.24903122  0.12489352  1
  Br  Br7  1  0.24978639  0.74903880  0.37510590  1
