# generated using pymatgen
data_LiBr
_symmetry_space_group_name_H-M   'P 1'
_cell_length_a   6.43489039
_cell_length_b   6.43471761
_cell_length_c   7.58528419
_cell_angle_alpha   89.99547735
_cell_angle_beta   90.00273654
_cell_angle_gamma   90.00040348
_symmetry_Int_Tables_number   1
_chemical_formula_structural   LiBr
_chemical_formula_sum   'Li4 Br4'
_cell_volume   314.08160471
_cell_formula_units_Z   4
loop_
 _symmetry_equiv_pos_site_id
 _symmetry_equiv_pos_as_xyz
  1  'x, y, z'
loop_
 _atom_site_type_symbol
 _atom_site_label
 _atom_site_symmetry_multiplicity
 _atom_site_fract_x
 _atom_site_fract_y
 _atom_site_fract_z
 _atom_site_occupancy
  Li  Li0  1  0.12669709  0.37474608  0.00368722  1
  Li  Li1  1  0.37473035  0.87333465  0.25368492  1
  Li  Li2  1  0.87331140  0.62526044  0.50364971  1
  Li  Li3  1  0.62525963  0.12665814  0.75367870  1
  Br  Br4  1  0.60531927  -0.10830640  0.50501786  1
  Br  Br5  1  -0.10836036  0.39471420  0.75505174  1
  Br  Br6  1  0.39467940  0.10831000  0.00500780  1
  Br  Br7  1  0.10836322  0.60528288  0.25504614  1
