# generated using pymatgen
data_LiBr
_symmetry_space_group_name_H-M   'P 1'
_cell_length_a   15.27876810
_cell_length_b   12.50791342
_cell_length_c   4.07773017
_cell_angle_alpha   90.00064471
_cell_angle_beta   89.99993827
_cell_angle_gamma   90.00006183
_symmetry_Int_Tables_number   1
_chemical_formula_structural   LiBr
_chemical_formula_sum   'Li16 Br16'
_cell_volume   779.27669710
_cell_formula_units_Z   16
loop_
 _symmetry_equiv_pos_site_id
 _symmetry_equiv_pos_as_xyz
  1  'x, y, z'
loop_
 _atom_site_type_symbol
 _atom_site_label
 _atom_site_symmetry_multiplicity
 _atom_site_fract_x
 _atom_site_fract_y
 _atom_site_fract_z
 _atom_site_occupancy
  Li  Li0  1  0.83651927  0.00704018  0.11885022  1
  Li  Li1  1  0.16348129  -0.00703716  0.11884896  1
  Li  Li2  1  0.41347906  0.25704155  0.36885709  1
  Li  Li3  1  0.66347962  -0.00703875  0.61885684  1
  Li  Li4  1  0.91348067  0.25704022  0.86885699  1
  Li  Li5  1  0.08651986  0.24295971  0.36885686  1
  Li  Li6  1  0.33651881  0.00703849  0.61884091  1
  Li  Li7  1  0.91348316  0.75703951  0.36884784  1
  Li  Li8  1  0.08651934  0.74296098  0.86884741  1
  Li  Li9  1  0.33651922  0.50703934  0.11884686  1
  Li  Li10  1  0.66348243  0.49295973  0.11885463  1
  Li  Li11  1  0.41348371  0.75704026  0.86884532  1
  Li  Li12  1  0.58652029  0.24295830  0.86885457  1
  Li  Li13  1  0.58651767  0.74296000  0.36884036  1
  Li  Li14  1  0.83651811  0.50703918  0.61884180  1
  Li  Li15  1  0.16348137  0.49295996  0.61886095  1
  Br  Br16  1  0.19223833  0.10987132  0.61195611  1
  Br  Br17  1  0.80776066  0.89012945  0.61194925  1
  Br  Br18  1  0.05776219  0.35986946  0.86196723  1
  Br  Br19  1  0.30776101  0.89012859  0.11194456  1
  Br  Br20  1  0.55776021  0.35987253  0.36196215  1
  Br  Br21  1  0.44223958  0.14012684  0.86195015  1
  Br  Br22  1  0.69223869  0.10987097  0.11196402  1
  Br  Br23  1  0.55776230  0.85986960  0.86195744  1
  Br  Br24  1  0.44223657  0.64013139  0.36194671  1
  Br  Br25  1  0.69223572  0.60986949  0.61196456  1
  Br  Br26  1  0.30775944  0.39012903  0.61194940  1
  Br  Br27  1  0.05776328  0.85987134  0.36195832  1
  Br  Br28  1  0.94223915  0.14012971  0.36194990  1
  Br  Br29  1  0.94223828  0.64012898  0.86194457  1
  Br  Br30  1  0.19223782  0.60986968  0.11196442  1
  Br  Br31  1  0.80776288  0.39013012  0.11195097  1
