# generated using pymatgen
data_NaI
_symmetry_space_group_name_H-M   'P 1'
_cell_length_a   4.63148762
_cell_length_b   4.63268385
_cell_length_c   11.19370786
_cell_angle_alpha   90.00111006
_cell_angle_beta   89.99962248
_cell_angle_gamma   120.02499692
_symmetry_Int_Tables_number   1
_chemical_formula_structural   NaI
_chemical_formula_sum   'Na3 I3'
_cell_volume   207.94492382
_cell_formula_units_Z   3
loop_
 _symmetry_equiv_pos_site_id
 _symmetry_equiv_pos_as_xyz
  1  'x, y, z'
loop_
 _atom_site_type_symbol
 _atom_site_label
 _atom_site_symmetry_multiplicity
 _atom_site_fract_x
 _atom_site_fract_y
 _atom_site_fract_z
 _atom_site_occupancy
  Na  Na0  1  0.66836767  -0.00000223  0.73194151  1
  Na  Na1  1  0.00016573  0.66809940  0.39188471  1
  Na  Na2  1  0.33155982  0.33182420  0.06204186  1
  I  I3  1  0.66425077  -0.00091364  0.22587964  1
  I  I4  1  0.00043930  0.66511704  0.89546933  1
  I  I5  1  0.33521673  0.33587521  0.56089124  1
