# generated using pymatgen
data_LiBr
_symmetry_space_group_name_H-M   'P 1'
_cell_length_a   4.22690287
_cell_length_b   7.05254362
_cell_length_c   8.19762822
_cell_angle_alpha   90.00189320
_cell_angle_beta   119.85891632
_cell_angle_gamma   89.99723519
_symmetry_Int_Tables_number   1
_chemical_formula_structural   LiBr
_chemical_formula_sum   'Li4 Br4'
_cell_volume   211.93494001
_cell_formula_units_Z   4
loop_
 _symmetry_equiv_pos_site_id
 _symmetry_equiv_pos_as_xyz
  1  'x, y, z'
loop_
 _atom_site_type_symbol
 _atom_site_label
 _atom_site_symmetry_multiplicity
 _atom_site_fract_x
 _atom_site_fract_y
 _atom_site_fract_z
 _atom_site_occupancy
  Li  Li0  1  0.81905055  0.34138969  0.82090128  1
  Li  Li1  1  0.18094966  0.84139047  0.67910481  1
  Li  Li2  1  0.18094930  0.65861110  0.17909860  1
  Li  Li3  1  0.81905270  0.15860853  0.32089711  1
  Br  Br4  1  0.81885345  0.79462535  0.32115893  1
  Br  Br5  1  0.18115795  0.29463272  0.17884009  1
  Br  Br6  1  0.18114549  0.20537556  0.67884052  1
  Br  Br7  1  0.81884091  0.70536657  0.82115866  1
