# generated using pymatgen
data_LiBr
_symmetry_space_group_name_H-M   'P 1'
_cell_length_a   6.67590553
_cell_length_b   3.86339654
_cell_length_c   6.45725873
_cell_angle_alpha   90.00000264
_cell_angle_beta   90.00003159
_cell_angle_gamma   89.99999735
_symmetry_Int_Tables_number   1
_chemical_formula_structural   LiBr
_chemical_formula_sum   'Li4 Br4'
_cell_volume   166.54348835
_cell_formula_units_Z   4
loop_
 _symmetry_equiv_pos_site_id
 _symmetry_equiv_pos_as_xyz
  1  'x, y, z'
loop_
 _atom_site_type_symbol
 _atom_site_label
 _atom_site_symmetry_multiplicity
 _atom_site_fract_x
 _atom_site_fract_y
 _atom_site_fract_z
 _atom_site_occupancy
  Li  Li0  1  0.24848856  0.00344912  0.25047533  1
  Li  Li1  1  0.75151151  0.50344965  0.24952432  1
  Li  Li2  1  0.25151126  0.99655093  0.75047716  1
  Li  Li3  1  0.74848864  0.49655053  0.74952324  1
  Br  Br4  1  0.58363921  -0.00034268  0.49986877  1
  Br  Br5  1  0.41636076  0.49965734  0.00013121  1
  Br  Br6  1  0.91636081  0.00034259  -0.00013153  1
  Br  Br7  1  0.08363926  0.50034253  0.50013150  1
