# generated using pymatgen
data_NaCl
_symmetry_space_group_name_H-M   'P 1'
_cell_length_a   5.24231177
_cell_length_b   5.21484838
_cell_length_c   7.33405693
_cell_angle_alpha   90.00033473
_cell_angle_beta   111.45555440
_cell_angle_gamma   90.00004672
_symmetry_Int_Tables_number   1
_chemical_formula_structural   NaCl
_chemical_formula_sum   'Na4 Cl4'
_cell_volume   186.60327631
_cell_formula_units_Z   4
loop_
 _symmetry_equiv_pos_site_id
 _symmetry_equiv_pos_as_xyz
  1  'x, y, z'
loop_
 _atom_site_type_symbol
 _atom_site_label
 _atom_site_symmetry_multiplicity
 _atom_site_fract_x
 _atom_site_fract_y
 _atom_site_fract_z
 _atom_site_occupancy
  Na  Na0  1  0.71746766  0.12514991  0.19236866  1
  Na  Na1  1  0.21746765  0.62514992  0.19236866  1
  Na  Na2  1  0.71748468  0.87484995  0.69237939  1
  Na  Na3  1  0.21748467  0.37484993  0.69237939  1
  Cl  Cl4  1  0.30519279  0.87604099  0.86576720  1
  Cl  Cl5  1  0.80519279  0.37604102  0.86576718  1
  Cl  Cl6  1  0.30518388  0.12395915  0.36576996  1
  Cl  Cl7  1  0.80518388  0.62395914  0.36576995  1
