# generated using pymatgen
data_LiBr
_symmetry_space_group_name_H-M   'P 1'
_cell_length_a   11.57388392
_cell_length_b   11.57388771
_cell_length_c   7.81995051
_cell_angle_alpha   89.99640968
_cell_angle_beta   90.00376017
_cell_angle_gamma   120.00532099
_symmetry_Int_Tables_number   1
_chemical_formula_structural   LiBr
_chemical_formula_sum   'Li18 Br18'
_cell_volume   907.13042494
_cell_formula_units_Z   18
loop_
 _symmetry_equiv_pos_site_id
 _symmetry_equiv_pos_as_xyz
  1  'x, y, z'
loop_
 _atom_site_type_symbol
 _atom_site_label
 _atom_site_symmetry_multiplicity
 _atom_site_fract_x
 _atom_site_fract_y
 _atom_site_fract_z
 _atom_site_occupancy
  Li  Li0  1  0.59148603  0.68149546  0.71715362  1
  Li  Li1  1  0.59141760  0.90993572  0.21722309  1
  Li  Li2  1  0.65174583  0.07534343  0.88418160  1
  Li  Li3  1  0.42363034  0.34823510  0.88422893  1
  Li  Li4  1  0.98515106  0.24311707  0.05064341  1
  Li  Li5  1  0.31847883  0.90988830  0.71721166  1
  Li  Li6  1  0.42352345  0.07533130  0.38425541  1
  Li  Li7  1  0.65176385  0.57637105  0.38422706  1
  Li  Li8  1  0.09006220  0.40858036  0.71722455  1
  Li  Li9  1  0.09011096  0.68152026  0.21721501  1
  Li  Li10  1  0.92465533  0.34825141  0.38418374  1
  Li  Li11  1  0.92467137  0.57647961  0.88425480  1
  Li  Li12  1  0.75683544  0.74202749  0.05067166  1
  Li  Li13  1  0.75688517  0.01484828  0.55064478  1
  Li  Li14  1  0.31850183  0.40851542  0.21715070  1
  Li  Li15  1  0.98513680  0.74200931  0.55058926  1
  Li  Li16  1  0.25799031  0.01486222  0.05059005  1
  Li  Li17  1  0.25797456  0.24316567  0.55066852  1
  Br  Br18  1  0.08807831  0.83960696  0.84424166  1
  Br  Br19  1  0.08808187  0.24849090  0.34428477  1
  Br  Br20  1  0.49378481  0.57856537  0.01087181  1
  Br  Br21  1  0.08478586  0.50623327  0.01092328  1
  Br  Br22  1  0.82704242  0.58185789  0.17765922  1
  Br  Br23  1  0.16042757  0.24853614  0.84431339  1
  Br  Br24  1  0.08483638  0.57860920  0.51091107  1
  Br  Br25  1  0.49376803  0.91521534  0.51092227  1
  Br  Br26  1  0.75150795  0.91191686  0.84428597  1
  Br  Br27  1  0.75146577  0.83957383  0.34431405  1
  Br  Br28  1  0.42143461  0.50621669  0.51087008  1
  Br  Br29  1  0.42138965  0.91516283  0.01090920  1
  Br  Br30  1  0.41821681  0.24520695  0.17763702  1
  Br  Br31  1  0.41814293  0.17295770  0.67766021  1
  Br  Br32  1  0.16039372  0.91192133  0.34424279  1
  Br  Br33  1  0.82702758  0.24519747  0.67759929  1
  Br  Br34  1  0.75480193  0.17297242  0.17759828  1
  Br  Br35  1  0.75479281  0.58178140  0.67763492  1
