# generated using pymatgen
data_LiBr
_symmetry_space_group_name_H-M   'P 1'
_cell_length_a   4.81360820
_cell_length_b   4.81148777
_cell_length_c   17.25169859
_cell_angle_alpha   90.00158912
_cell_angle_beta   90.00179613
_cell_angle_gamma   90.00293574
_symmetry_Int_Tables_number   1
_chemical_formula_structural   LiBr
_chemical_formula_sum   'Li8 Br8'
_cell_volume   399.55998319
_cell_formula_units_Z   8
loop_
 _symmetry_equiv_pos_site_id
 _symmetry_equiv_pos_as_xyz
  1  'x, y, z'
loop_
 _atom_site_type_symbol
 _atom_site_label
 _atom_site_symmetry_multiplicity
 _atom_site_fract_x
 _atom_site_fract_y
 _atom_site_fract_z
 _atom_site_occupancy
  Li  Li0  1  0.28500082  0.00275019  0.68007773  1
  Li  Li1  1  0.00278214  0.28480104  0.31993747  1
  Li  Li2  1  0.78473852  0.49810797  0.57000172  1
  Li  Li3  1  -0.00278459  0.71518283  0.81993737  1
  Li  Li4  1  0.21526104  0.50190536  0.06998941  1
  Li  Li5  1  0.71501056  -0.00273975  0.18007440  1
  Li  Li6  1  0.50192107  0.21544392  0.92998444  1
  Li  Li7  1  0.49806591  0.78455481  0.42999517  1
  Br  Br8  1  0.50625724  -0.06994545  0.81214991  1
  Br  Br9  1  -0.06983525  0.50629079  0.18787536  1
  Br  Br10  1  0.00645307  0.56973824  0.43788863  1
  Br  Br11  1  0.06984135  0.49372244  0.68786494  1
  Br  Br12  1  -0.00643806  0.43025941  0.93791777  1
  Br  Br13  1  0.49372548  0.06993955  0.31214420  1
  Br  Br14  1  0.43036152  -0.00645993  0.06209582  1
  Br  Br15  1  0.56963918  0.00644855  0.56206566  1
