# generated using pymatgen
data_NaI
_symmetry_space_group_name_H-M   'P 1'
_cell_length_a   4.70808904
_cell_length_b   8.97153285
_cell_length_c   6.54268632
_cell_angle_alpha   89.99979575
_cell_angle_beta   89.99695108
_cell_angle_gamma   89.99798096
_symmetry_Int_Tables_number   1
_chemical_formula_structural   NaI
_chemical_formula_sum   'Na4 I4'
_cell_volume   276.35505798
_cell_formula_units_Z   4
loop_
 _symmetry_equiv_pos_site_id
 _symmetry_equiv_pos_as_xyz
  1  'x, y, z'
loop_
 _atom_site_type_symbol
 _atom_site_label
 _atom_site_symmetry_multiplicity
 _atom_site_fract_x
 _atom_site_fract_y
 _atom_site_fract_z
 _atom_site_occupancy
  Na  Na0  1  0.50013432  0.62055547  0.74767356  1
  Na  Na1  1  0.49986608  0.12055562  0.75232199  1
  Na  Na2  1  -0.00013407  0.37944451  0.24767839  1
  Na  Na3  1  0.00013419  0.87944438  0.25232611  1
  I  I4  1  0.50029017  0.12723072  0.25176037  1
  I  I5  1  0.49970893  0.62723091  0.24823855  1
  I  I6  1  -0.00029079  0.87276929  0.75176124  1
  I  I7  1  0.00029118  0.37276910  0.74823980  1
