# generated using pymatgen
data_NaBr
_symmetry_space_group_name_H-M   'P 1'
_cell_length_a   12.30230322
_cell_length_b   12.80788049
_cell_length_c   9.52494295
_cell_angle_alpha   89.99780882
_cell_angle_beta   90.00080173
_cell_angle_gamma   89.17408211
_symmetry_Int_Tables_number   1
_chemical_formula_structural   NaBr
_chemical_formula_sum   'Na16 Br16'
_cell_volume   1500.65532398
_cell_formula_units_Z   16
loop_
 _symmetry_equiv_pos_site_id
 _symmetry_equiv_pos_as_xyz
  1  'x, y, z'
loop_
 _atom_site_type_symbol
 _atom_site_label
 _atom_site_symmetry_multiplicity
 _atom_site_fract_x
 _atom_site_fract_y
 _atom_site_fract_z
 _atom_site_occupancy
  Na  Na0  1  0.74928119  0.90159912  0.38649151  1
  Na  Na1  1  0.25070963  0.09839785  0.38650939  1
  Na  Na2  1  0.49889687  0.15304547  0.63762408  1
  Na  Na3  1  0.75071193  0.09839448  0.88650879  1
  Na  Na4  1  -0.00110385  0.15304244  0.13762956  1
  Na  Na5  1  0.00110949  0.34696354  0.63763426  1
  Na  Na6  1  0.24928207  0.90160318  0.88649153  1
  Na  Na7  1  -0.00110312  0.65304364  0.63762846  1
  Na  Na8  1  0.00110919  0.84696213  0.13763189  1
  Na  Na9  1  0.24928003  0.40160174  0.38649020  1
  Na  Na10  1  0.75071074  0.59839501  0.38650932  1
  Na  Na11  1  0.49889655  0.65304434  0.13762591  1
  Na  Na12  1  0.50110922  0.34696338  0.13762929  1
  Na  Na13  1  0.50110958  0.84696503  0.63763101  1
  Na  Na14  1  0.74928232  0.40159858  0.88649241  1
  Na  Na15  1  0.25071280  0.59839752  0.88650820  1
  Br  Br16  1  0.32595667  0.00136501  0.63863052  1
  Br  Br17  1  0.67405141  -0.00135809  0.63862913  1
  Br  Br18  1  0.92446803  0.24815911  0.88498954  1
  Br  Br19  1  0.17405092  -0.00136013  0.13863211  1
  Br  Br20  1  0.42446608  0.24816304  0.38498690  1
  Br  Br21  1  0.57552701  0.25182783  0.88500101  1
  Br  Br22  1  0.82595619  0.00136196  0.13863190  1
  Br  Br23  1  0.42446749  0.74816455  0.88498942  1
  Br  Br24  1  0.57552602  0.75182905  0.38500155  1
  Br  Br25  1  0.82595625  0.50136308  0.63863275  1
  Br  Br26  1  0.17405162  0.49864052  0.63863124  1
  Br  Br27  1  0.92446717  0.74815983  0.38498874  1
  Br  Br28  1  0.07552485  0.25183132  0.38500143  1
  Br  Br29  1  0.07552783  0.75183141  0.88499995  1
  Br  Br30  1  0.32595685  0.50136334  0.13863007  1
  Br  Br31  1  0.67405096  0.49864072  0.13862983  1
