# generated using pymatgen
data_LiBr
_symmetry_space_group_name_H-M   'P 1'
_cell_length_a   14.58433008
_cell_length_b   14.34354105
_cell_length_c   3.85447165
_cell_angle_alpha   90.00020321
_cell_angle_beta   90.00225951
_cell_angle_gamma   90.14185371
_symmetry_Int_Tables_number   1
_chemical_formula_structural   LiBr
_chemical_formula_sum   'Li16 Br16'
_cell_volume   806.31806485
_cell_formula_units_Z   16
loop_
 _symmetry_equiv_pos_site_id
 _symmetry_equiv_pos_as_xyz
  1  'x, y, z'
loop_
 _atom_site_type_symbol
 _atom_site_label
 _atom_site_symmetry_multiplicity
 _atom_site_fract_x
 _atom_site_fract_y
 _atom_site_fract_z
 _atom_site_occupancy
  Li  Li0  1  0.41833716  0.16879072  0.00113014  1
  Li  Li1  1  0.58166639  0.83120318  0.00117514  1
  Li  Li2  1  0.83218759  0.41913073  0.24599845  1
  Li  Li3  1  0.08169206  0.83119419  0.50119763  1
  Li  Li4  1  0.33217703  0.41912206  0.74594145  1
  Li  Li5  1  0.66782426  0.08086844  0.24602139  1
  Li  Li6  1  0.91831427  0.16880085  0.50117040  1
  Li  Li7  1  0.33218754  0.91914372  0.24599966  1
  Li  Li8  1  0.66781639  0.58087338  0.74604625  1
  Li  Li9  1  0.91831591  0.66879608  0.00122529  1
  Li  Li10  1  0.08169354  0.33119365  0.00118174  1
  Li  Li11  1  0.83218426  0.91913753  0.74598573  1
  Li  Li12  1  0.16781911  0.08086334  0.74605756  1
  Li  Li13  1  0.16782995  0.58088203  0.24600561  1
  Li  Li14  1  0.41833143  0.66879410  0.50115999  1
  Li  Li15  1  0.58166255  0.33120607  0.50116184  1
  Br  Br16  1  0.58280283  0.16273361  0.74568613  1
  Br  Br17  1  0.41719452  0.83728302  0.74568962  1
  Br  Br18  1  0.66706214  0.41304239  0.00041196  1
  Br  Br19  1  0.91720005  0.83728934  0.24568774  1
  Br  Br20  1  0.16706876  0.41304502  0.50039357  1
  Br  Br21  1  0.83292751  0.08694979  0.00039871  1
  Br  Br22  1  0.08279478  0.16272034  0.24572896  1
  Br  Br23  1  0.16707911  0.91303438  0.00039798  1
  Br  Br24  1  0.83292427  0.58695233  0.50042887  1
  Br  Br25  1  0.08279263  0.66271971  0.74570512  1
  Br  Br26  1  0.91720089  0.33728228  0.74569719  1
  Br  Br27  1  0.66706259  0.91304394  0.50040242  1
  Br  Br28  1  0.33292778  0.08695297  0.50041307  1
  Br  Br29  1  0.33293535  0.58694384  0.00041174  1
  Br  Br30  1  0.58279587  0.66273298  0.24572167  1
  Br  Br31  1  0.41719150  0.33727395  0.24564603  1
