# generated using pymatgen
data_LiI
_symmetry_space_group_name_H-M   'P 1'
_cell_length_a   12.21082758
_cell_length_b   12.21085509
_cell_length_c   7.42826145
_cell_angle_alpha   90.00203495
_cell_angle_beta   89.99928156
_cell_angle_gamma   89.99989432
_symmetry_Int_Tables_number   1
_chemical_formula_structural   LiI
_chemical_formula_sum   'Li16 I16'
_cell_volume   1107.58829462
_cell_formula_units_Z   16
loop_
 _symmetry_equiv_pos_site_id
 _symmetry_equiv_pos_as_xyz
  1  'x, y, z'
loop_
 _atom_site_type_symbol
 _atom_site_label
 _atom_site_symmetry_multiplicity
 _atom_site_fract_x
 _atom_site_fract_y
 _atom_site_fract_z
 _atom_site_occupancy
  Li  Li0  1  0.55689883  0.62437110  0.20297916  1
  Li  Li1  1  0.12435112  0.55691157  0.45298707  1
  Li  Li2  1  0.44310027  0.62436203  0.70297476  1
  Li  Li3  1  0.44307717  0.37563365  0.20301602  1
  Li  Li4  1  0.87561661  0.44309014  0.45298897  1
  Li  Li5  1  0.37564468  0.05690152  0.45297439  1
  Li  Li6  1  0.62438251  -0.05691907  0.45299591  1
  Li  Li7  1  0.87564691  0.55690734  0.95297640  1
  Li  Li8  1  0.12438424  0.44307982  0.95300149  1
  Li  Li9  1  -0.05691577  0.87563496  0.70300461  1
  Li  Li10  1  0.37562210  -0.05690569  0.95298317  1
  Li  Li11  1  0.05690455  0.12437032  0.70298297  1
  Li  Li12  1  0.62435903  0.05690860  0.95298621  1
  Li  Li13  1  -0.05690005  0.12436459  0.20298160  1
  Li  Li14  1  0.05691906  0.87562479  0.20300824  1
  Li  Li15  1  0.55692583  0.37562130  0.70302273  1
  I  I16  1  0.93544267  0.64843596  0.62394999  1
  I  I17  1  0.14841777  0.93545197  0.87397346  1
  I  I18  1  0.06455149  0.64842400  0.12394890  1
  I  I19  1  0.06453738  0.35157694  0.62398596  1
  I  I20  1  0.85155893  0.06455894  0.87396909  1
  I  I21  1  0.35158892  0.43544964  0.87396700  1
  I  I22  1  0.64844738  0.56455654  0.87398044  1
  I  I23  1  0.85158388  0.93545019  0.37396512  1
  I  I24  1  0.14844397  0.06455518  0.37397582  1
  I  I25  1  0.56453831  0.85157633  0.12397787  1
  I  I26  1  0.35154954  0.56456220  0.37396699  1
  I  I27  1  0.43544819  0.14843524  0.12395486  1
  I  I28  1  0.64840862  0.43545555  0.37398145  1
  I  I29  1  0.56455259  0.14842200  0.62395412  1
  I  I30  1  0.43545888  0.85156511  0.62397878  1
  I  I31  1  0.93545439  0.35156726  0.12398598  1
