# generated using pymatgen
data_LiI
_symmetry_space_group_name_H-M   'P 1'
_cell_length_a   8.52648463
_cell_length_b   8.52649187
_cell_length_c   11.96796747
_cell_angle_alpha   90.00035344
_cell_angle_beta   89.99994844
_cell_angle_gamma   90.00135180
_symmetry_Int_Tables_number   1
_chemical_formula_structural   LiI
_chemical_formula_sum   'Li16 I16'
_cell_volume   870.08322427
_cell_formula_units_Z   16
loop_
 _symmetry_equiv_pos_site_id
 _symmetry_equiv_pos_as_xyz
  1  'x, y, z'
loop_
 _atom_site_type_symbol
 _atom_site_label
 _atom_site_symmetry_multiplicity
 _atom_site_fract_x
 _atom_site_fract_y
 _atom_site_fract_z
 _atom_site_occupancy
  Li  Li0  1  0.50080759  0.24982172  0.16375974  1
  Li  Li1  1  0.74981966  0.50080747  0.41375997  1
  Li  Li2  1  0.49919223  0.24981812  0.66375959  1
  Li  Li3  1  0.49919169  0.75017998  0.16375985  1
  Li  Li4  1  0.25018141  0.49919219  0.41375873  1
  Li  Li5  1  0.75017965  0.00080808  0.41375980  1
  Li  Li6  1  0.24981936  -0.00080825  0.41375917  1
  Li  Li7  1  0.25018033  0.50080827  0.91375860  1
  Li  Li8  1  0.74982092  0.49919169  0.91375980  1
  Li  Li9  1  -0.00080658  0.25017928  0.66375869  1
  Li  Li10  1  0.75017901  -0.00080760  0.91376002  1
  Li  Li11  1  0.00080837  0.74982082  0.66375886  1
  Li  Li12  1  0.24981860  0.00080798  0.91375899  1
  Li  Li13  1  -0.00080860  0.74982104  0.16375953  1
  Li  Li14  1  0.00080779  0.25018102  0.16375845  1
  Li  Li15  1  0.50080968  0.75017879  0.66375954  1
  I  I16  1  0.50000055  0.74972371  0.91396552  1
  I  I17  1  0.24972351  0.50000122  0.16396584  1
  I  I18  1  0.49999929  0.74972363  0.41396575  1
  I  I19  1  0.49999900  0.25027614  0.91396597  1
  I  I20  1  0.75027628  0.49999931  0.16396568  1
  I  I21  1  0.25027608  0.00000096  0.16396594  1
  I  I22  1  0.74972328  -0.00000048  0.16396560  1
  I  I23  1  0.75027639  0.50000035  0.66396552  1
  I  I24  1  0.24972408  0.49999904  0.66396589  1
  I  I25  1  -0.00000105  0.75027615  0.41396550  1
  I  I26  1  0.25027633  -0.00000141  0.66396578  1
  I  I27  1  0.00000106  0.24972378  0.41396586  1
  I  I28  1  0.74972394  0.00000067  0.66396556  1
  I  I29  1  -0.00000115  0.24972382  0.91396557  1
  I  I30  1  0.00000062  0.75027633  0.91396576  1
  I  I31  1  0.50000067  0.25027619  0.41396575  1
