# generated using pymatgen
data_NaI
_symmetry_space_group_name_H-M   'P 1'
_cell_length_a   9.08920872
_cell_length_b   9.08920881
_cell_length_c   15.60354208
_cell_angle_alpha   90.00042236
_cell_angle_beta   90.00042084
_cell_angle_gamma   90.00000782
_symmetry_Int_Tables_number   1
_chemical_formula_structural   NaI
_chemical_formula_sum   'Na16 I16'
_cell_volume   1289.06659340
_cell_formula_units_Z   16
loop_
 _symmetry_equiv_pos_site_id
 _symmetry_equiv_pos_as_xyz
  1  'x, y, z'
loop_
 _atom_site_type_symbol
 _atom_site_label
 _atom_site_symmetry_multiplicity
 _atom_site_fract_x
 _atom_site_fract_y
 _atom_site_fract_z
 _atom_site_occupancy
  Na  Na0  1  0.67755656  0.36845223  0.57687269  1
  Na  Na1  1  0.86845236  0.67755660  0.82687275  1
  Na  Na2  1  0.32244204  0.36844635  0.07686918  1
  Na  Na3  1  0.32244508  0.63155980  0.57686555  1
  Na  Na4  1  0.13155968  0.32244499  0.82686560  1
  Na  Na5  1  0.63155377  0.17755344  0.82686910  1
  Na  Na6  1  0.36844636  0.82244205  0.82686917  1
  Na  Na7  1  0.13155377  0.67755345  0.32686908  1
  Na  Na8  1  0.86844637  0.32244206  0.32686916  1
  Na  Na9  1  0.82244505  0.13155982  0.07686554  1
  Na  Na10  1  0.63155965  0.82244499  0.32686564  1
  Na  Na11  1  0.17755655  0.86845221  0.07687268  1
  Na  Na12  1  0.36845237  0.17755661  0.32687276  1
  Na  Na13  1  0.82244204  0.86844635  0.57686919  1
  Na  Na14  1  0.17755345  0.13155386  0.57686906  1
  Na  Na15  1  0.67755343  0.63155380  0.07686910  1
  I  I16  1  0.90236915  0.21279771  0.69276655  1
  I  I17  1  0.71279777  0.90236919  0.94276657  1
  I  I18  1  0.09763208  0.21279791  0.19276616  1
  I  I19  1  0.09763018  0.78719627  0.69276552  1
  I  I20  1  0.28719627  0.09763013  0.94276554  1
  I  I21  1  0.78719631  0.40237109  0.94276587  1
  I  I22  1  0.21279795  0.59763203  0.94276614  1
  I  I23  1  0.28719631  0.90237109  0.44276587  1
  I  I24  1  0.71279793  0.09763205  0.44276614  1
  I  I25  1  0.59763018  0.28719631  0.19276551  1
  I  I26  1  0.78719627  0.59763013  0.44276554  1
  I  I27  1  0.40236914  0.71279774  0.19276655  1
  I  I28  1  0.21279777  0.40236921  0.44276656  1
  I  I29  1  0.59763208  0.71279791  0.69276617  1
  I  I30  1  0.40237106  0.28719631  0.69276589  1
  I  I31  1  0.90237104  0.78719632  0.19276590  1
