# generated using pymatgen
data_LiBr
_symmetry_space_group_name_H-M   'P 1'
_cell_length_a   11.53457554
_cell_length_b   11.53456277
_cell_length_c   7.92340019
_cell_angle_alpha   90.00012659
_cell_angle_beta   89.99979790
_cell_angle_gamma   120.00507959
_symmetry_Int_Tables_number   1
_chemical_formula_structural   LiBr
_chemical_formula_sum   'Li18 Br18'
_cell_volume   912.89902981
_cell_formula_units_Z   18
loop_
 _symmetry_equiv_pos_site_id
 _symmetry_equiv_pos_as_xyz
  1  'x, y, z'
loop_
 _atom_site_type_symbol
 _atom_site_label
 _atom_site_symmetry_multiplicity
 _atom_site_fract_x
 _atom_site_fract_y
 _atom_site_fract_z
 _atom_site_occupancy
  Li  Li0  1  0.20344348  0.40687856  0.58199449  1
  Li  Li1  1  0.20345645  0.79657164  0.08203726  1
  Li  Li2  1  -0.07344512  0.46329845  0.74950595  1
  Li  Li3  1  0.53672882  0.07343247  0.74952276  1
  Li  Li4  1  0.25984990  0.12985880  0.91628629  1
  Li  Li5  1  0.59315508  0.79661761  0.58203957  1
  Li  Li6  1  0.53670836  0.46330143  0.24954538  1
  Li  Li7  1  -0.07342892  0.46327790  0.24952560  1
  Li  Li8  1  0.20341364  0.79655423  0.58202751  1
  Li  Li9  1  0.20338587  0.40683078  0.08204188  1
  Li  Li10  1  0.53669305  0.07345292  0.24949516  1
  Li  Li11  1  0.53669808  0.46330477  0.74955464  1
  Li  Li12  1  0.87014802  0.12994830  0.91626780  1
  Li  Li13  1  0.87012049  0.74014474  0.41630002  1
  Li  Li14  1  0.59314239  0.79656843  0.08199906  1
  Li  Li15  1  0.25977700  0.12989535  0.41629473  1
  Li  Li16  1  0.87009764  0.74021011  0.91628538  1
  Li  Li17  1  0.87004265  0.12986872  0.41626173  1
  Br  Br18  1  0.75881466  0.87934301  0.34278432  1
  Br  Br19  1  0.75883209  0.87945915  0.84283747  1
  Br  Br20  1  0.45395046  0.90787096  0.50989683  1
  Br  Br21  1  0.45392032  0.54608429  0.50994990  1
  Br  Br22  1  0.78718870  0.21277061  0.67694108  1
  Br  Br23  1  0.12061401  0.87939365  0.34277901  1
  Br  Br24  1  0.45389898  0.90786201  0.00994062  1
  Br  Br25  1  0.45392123  0.54608488  0.00996238  1
  Br  Br26  1  0.12053834  0.24117587  0.34285103  1
  Br  Br27  1  0.12060018  0.87936549  0.84278543  1
  Br  Br28  1  0.09213172  0.54603821  0.00990306  1
  Br  Br29  1  0.09214002  0.54611288  0.50994325  1
  Br  Br30  1  0.78721335  0.57442242  0.67697280  1
  Br  Br31  1  0.78722042  0.21281851  0.17693103  1
  Br  Br32  1  0.12066980  0.24118077  0.84277942  1
  Br  Br33  1  0.78719102  0.57440052  0.17690457  1
  Br  Br34  1  0.42560300  0.21281381  0.67691146  1
  Br  Br35  1  0.42556481  0.21278773  0.17696992  1
