# generated using pymatgen
data_LiBr
_symmetry_space_group_name_H-M   'P 1'
_cell_length_a   8.77677858
_cell_length_b   4.40201112
_cell_length_c   5.16929164
_cell_angle_alpha   90.00013098
_cell_angle_beta   89.99994941
_cell_angle_gamma   90.00000376
_symmetry_Int_Tables_number   1
_chemical_formula_structural   LiBr
_chemical_formula_sum   'Li4 Br4'
_cell_volume   199.71804754
_cell_formula_units_Z   4
loop_
 _symmetry_equiv_pos_site_id
 _symmetry_equiv_pos_as_xyz
  1  'x, y, z'
loop_
 _atom_site_type_symbol
 _atom_site_label
 _atom_site_symmetry_multiplicity
 _atom_site_fract_x
 _atom_site_fract_y
 _atom_site_fract_z
 _atom_site_occupancy
  Li  Li0  1  0.62486896  0.24780130  0.33621662  1
  Li  Li1  1  0.12486825  0.25219750  0.33621136  1
  Li  Li2  1  0.37513153  0.75220216  0.83621968  1
  Li  Li3  1  0.87513087  0.74779651  0.83622483  1
  Br  Br4  1  0.37506663  0.25177580  0.08498098  1
  Br  Br5  1  0.87506561  0.24822538  0.08498169  1
  Br  Br6  1  0.62493457  0.74822650  0.58498163  1
  Br  Br7  1  0.12493358  0.75177485  0.58498146  1
