# generated using pymatgen
data_KI
_symmetry_space_group_name_H-M   'P 1'
_cell_length_a   13.31933552
_cell_length_b   13.32043458
_cell_length_c   13.06908969
_cell_angle_alpha   89.99180066
_cell_angle_beta   89.99854005
_cell_angle_gamma   120.00473151
_symmetry_Int_Tables_number   1
_chemical_formula_structural   KI
_chemical_formula_sum   'K18 I18'
_cell_volume   2007.96532043
_cell_formula_units_Z   18
loop_
 _symmetry_equiv_pos_site_id
 _symmetry_equiv_pos_as_xyz
  1  'x, y, z'
loop_
 _atom_site_type_symbol
 _atom_site_label
 _atom_site_symmetry_multiplicity
 _atom_site_fract_x
 _atom_site_fract_y
 _atom_site_fract_z
 _atom_site_occupancy
  K  K0  1  0.73307874  0.79738608  0.68366557  1
  K  K1  1  0.60234137  0.06636936  0.64969744  1
  K  K2  1  0.26692122  0.20261392  0.31633441  1
  K  K3  1  0.06430640  0.26691539  0.68365738  1
  K  K4  1  0.46402576  0.39766157  0.64969492  1
  K  K5  1  0.79738846  0.06430830  0.31633967  1
  K  K6  1  0.86928388  0.26897722  0.01694726  1
  K  K7  1  0.20261159  0.93569180  0.68366036  1
  K  K8  1  0.93569359  0.73308461  0.31634261  1
  K  K9  1  0.13071608  0.73102272  -0.01694727  1
  K  K10  1  0.53597424  0.60233841  0.35030506  1
  K  K11  1  0.73102043  0.60030153  0.01694388  1
  K  K12  1  0.26897956  0.39969848  -0.01694385  1
  K  K13  1  0.39765865  0.93363064  0.35030256  1
  K  K14  1  0.39969182  0.13071442  0.01695205  1
  K  K15  1  0.60030823  0.86928562  -0.01695210  1
  K  K16  1  0.93363754  0.53597606  0.64968927  1
  K  K17  1  0.06636245  0.46402391  0.35031081  1
  I  I18  1  0.60594949  0.08020504  0.14734320  1
  I  I19  1  0.19246511  0.93932810  0.18595815  1
  I  I20  1  0.39405048  0.91979495  0.85265682  1
  I  I21  1  0.47425292  0.39405184  0.14734055  1
  I  I22  1  0.74686436  0.80753693  0.18596582  1
  I  I23  1  0.08020170  0.47425508  0.85266633  1
  I  I24  1  0.58646777  0.85911756  0.48068429  1
  I  I25  1  0.91979831  0.52574501  0.14733370  1
  I  I26  1  0.52574716  0.60594818  0.85265945  1
  I  I27  1  0.41353219  0.14088237  0.51931568  1
  I  I28  1  0.25313566  0.19246303  0.81403420  1
  I  I29  1  0.14088093  0.72734993  0.48069193  1
  I  I30  1  0.85911909  0.27265012  0.51930802  1
  I  I31  1  0.80753480  0.06067182  0.81404187  1
  I  I32  1  0.27265194  0.41353426  0.48069373  1
  I  I33  1  0.72734804  0.58646574  0.51930625  1
  I  I34  1  0.06066976  0.25313302  0.18595616  1
  I  I35  1  0.93933028  0.74686698  0.81404385  1
