# generated using pymatgen
data_NaI
_symmetry_space_group_name_H-M   'P 1'
_cell_length_a   7.96914249
_cell_length_b   9.78503633
_cell_length_c   5.20796749
_cell_angle_alpha   90.00042949
_cell_angle_beta   89.98507808
_cell_angle_gamma   90.00004093
_symmetry_Int_Tables_number   1
_chemical_formula_structural   NaI
_chemical_formula_sum   'Na4 I4'
_cell_volume   406.10869160
_cell_formula_units_Z   4
loop_
 _symmetry_equiv_pos_site_id
 _symmetry_equiv_pos_as_xyz
  1  'x, y, z'
loop_
 _atom_site_type_symbol
 _atom_site_label
 _atom_site_symmetry_multiplicity
 _atom_site_fract_x
 _atom_site_fract_y
 _atom_site_fract_z
 _atom_site_occupancy
  Na  Na0  1  0.27422134  0.83257148  0.74144661  1
  Na  Na1  1  0.72577856  0.33257194  0.75854764  1
  Na  Na2  1  0.22577558  0.16742760  0.24148149  1
  Na  Na3  1  0.77422413  0.66742778  0.25852421  1
  I  I4  1  0.07175079  0.86813507  0.24206416  1
  I  I5  1  -0.07175046  0.36813566  0.25793116  1
  I  I6  1  0.42824653  0.13186513  0.74218537  1
  I  I7  1  0.57175352  0.63186534  0.75781936  1
