# generated using pymatgen
data_LiBr
_symmetry_space_group_name_H-M   'P 1'
_cell_length_a   11.53766921
_cell_length_b   11.53765529
_cell_length_c   7.93318636
_cell_angle_alpha   90.00374983
_cell_angle_beta   89.99618664
_cell_angle_gamma   120.00731803
_symmetry_Int_Tables_number   1
_chemical_formula_structural   LiBr
_chemical_formula_sum   'Li18 Br18'
_cell_volume   914.49618838
_cell_formula_units_Z   18
loop_
 _symmetry_equiv_pos_site_id
 _symmetry_equiv_pos_as_xyz
  1  'x, y, z'
loop_
 _atom_site_type_symbol
 _atom_site_label
 _atom_site_symmetry_multiplicity
 _atom_site_fract_x
 _atom_site_fract_y
 _atom_site_fract_z
 _atom_site_occupancy
  Li  Li0  1  0.92655683  0.46352048  0.50850243  1
  Li  Li1  1  0.92656374  0.46303884  0.00849902  1
  Li  Li2  1  0.86978070  0.74010670  0.67514957  1
  Li  Li3  1  0.87031807  0.13021829  0.67514076  1
  Li  Li4  1  0.20314855  0.79636528  0.84182406  1
  Li  Li5  1  0.53647972  0.46304406  0.50849480  1
  Li  Li6  1  0.87032143  0.74009767  0.17514434  1
  Li  Li7  1  0.86978289  0.12968281  0.17514079  1
  Li  Li8  1  0.53696173  0.07343680  0.50849858  1
  Li  Li9  1  0.53695448  0.46351906  0.00849531  1
  Li  Li10  1  0.25989285  0.13021962  0.17514715  1
  Li  Li11  1  0.25990046  0.12967699  0.67514362  1
  Li  Li12  1  0.20363935  0.40678531  0.84183081  1
  Li  Li13  1  0.20363435  0.79685046  0.34182406  1
  Li  Li14  1  0.53648057  0.07344330  0.00850378  1
  Li  Li15  1  0.20314949  0.40679091  0.34183434  1
  Li  Li16  1  0.59320728  0.79685019  0.84183634  1
  Li  Li17  1  0.59321831  0.79636250  0.34183168  1
  Br  Br18  1  0.42534907  0.21258465  0.93556264  1
  Br  Br19  1  0.42535100  0.21276955  0.43555719  1
  Br  Br20  1  0.12075964  0.24132237  0.10224515  1
  Br  Br21  1  0.12055796  0.87922930  0.10226700  1
  Br  Br22  1  0.45409306  0.54611628  0.26894326  1
  Br  Br23  1  0.78742706  0.21277248  0.93557924  1
  Br  Br24  1  0.12056005  0.24132033  0.60224056  1
  Br  Br25  1  0.12077157  0.87944300  0.60226595  1
  Br  Br26  1  0.78722901  0.57464827  0.93555904  1
  Br  Br27  1  0.78722783  0.21257335  0.43558120  1
  Br  Br28  1  0.75867945  0.87924030  0.60224429  1
  Br  Br29  1  0.75868105  0.87944001  0.10224447  1
  Br  Br30  1  0.45388556  0.90797083  0.26891782  1
  Br  Br31  1  0.45388410  0.54590638  0.76894161  1
  Br  Br32  1  0.78741541  0.57465100  0.43556170  1
  Br  Br33  1  0.45408309  0.90797204  0.76892003  1
  Br  Br34  1  0.09202696  0.54591754  0.26892166  1
  Br  Br35  1  0.09202732  0.54611305  0.76891845  1
