# generated using pymatgen
data_LiBr
_symmetry_space_group_name_H-M   'P 1'
_cell_length_a   7.80499003
_cell_length_b   7.80500951
_cell_length_c   10.92052860
_cell_angle_alpha   90.00006961
_cell_angle_beta   90.00002937
_cell_angle_gamma   89.99996991
_symmetry_Int_Tables_number   1
_chemical_formula_structural   LiBr
_chemical_formula_sum   'Li16 Br16'
_cell_volume   665.25699486
_cell_formula_units_Z   16
loop_
 _symmetry_equiv_pos_site_id
 _symmetry_equiv_pos_as_xyz
  1  'x, y, z'
loop_
 _atom_site_type_symbol
 _atom_site_label
 _atom_site_symmetry_multiplicity
 _atom_site_fract_x
 _atom_site_fract_y
 _atom_site_fract_z
 _atom_site_occupancy
  Li  Li0  1  0.75100170  0.99920370  0.44621007  1
  Li  Li1  1  0.49919984  0.75100381  0.69620977  1
  Li  Li2  1  0.24899914  0.99920351  -0.05378876  1
  Li  Li3  1  0.24899741  0.00079833  0.44621021  1
  Li  Li4  1  0.50079693  0.24899748  0.69621046  1
  Li  Li5  1  0.00079620  0.25100286  0.69620919  1
  Li  Li6  1  0.99920171  0.74899696  0.69621114  1
  Li  Li7  1  0.50079719  0.75100203  0.19620947  1
  Li  Li8  1  0.49920052  0.24899636  0.19621057  1
  Li  Li9  1  0.74899901  0.50079556  -0.05378982  1
  Li  Li10  1  0.00079799  0.74899654  0.19621014  1
  Li  Li11  1  0.25100354  0.49920246  -0.05379022  1
  Li  Li12  1  0.99920585  0.25100187  0.19621010  1
  Li  Li13  1  0.74899843  0.49920749  0.44621092  1
  Li  Li14  1  0.25100106  0.50079415  0.44621002  1
  Li  Li15  1  0.75100325  0.00079734  -0.05379074  1
  Br  Br16  1  0.24938139  -0.00037908  0.19597516  1
  Br  Br17  1  0.49962052  0.24938057  0.44597497  1
  Br  Br18  1  0.75061919  -0.00037874  0.69597484  1
  Br  Br19  1  0.75061866  0.00037970  0.19597470  1
  Br  Br20  1  0.50037901  0.75061953  0.44597479  1
  Br  Br21  1  0.00037972  0.74938063  0.44597536  1
  Br  Br22  1  -0.00037931  0.25061900  0.44597518  1
  Br  Br23  1  0.50037990  0.24938104  0.94597505  1
  Br  Br24  1  0.49962044  0.75061899  0.94597485  1
  Br  Br25  1  0.25061917  0.50037907  0.69597480  1
  Br  Br26  1  0.00037977  0.25061916  0.94597455  1
  Br  Br27  1  0.74938085  0.49962060  0.69597524  1
  Br  Br28  1  -0.00037913  0.74938100  0.94597470  1
  Br  Br29  1  0.25061931  0.49961993  0.19597476  1
  Br  Br30  1  0.74938052  0.50037882  0.19597467  1
  Br  Br31  1  0.24938024  0.00037932  0.69597481  1
