# generated using pymatgen
data_LiI
_symmetry_space_group_name_H-M   'P 1'
_cell_length_a   7.95006475
_cell_length_b   7.99332740
_cell_length_c   7.91805241
_cell_angle_alpha   89.99927370
_cell_angle_beta   89.99993023
_cell_angle_gamma   89.99963670
_symmetry_Int_Tables_number   1
_chemical_formula_structural   LiI
_chemical_formula_sum   'Li8 I8'
_cell_volume   503.17220108
_cell_formula_units_Z   8
loop_
 _symmetry_equiv_pos_site_id
 _symmetry_equiv_pos_as_xyz
  1  'x, y, z'
loop_
 _atom_site_type_symbol
 _atom_site_label
 _atom_site_symmetry_multiplicity
 _atom_site_fract_x
 _atom_site_fract_y
 _atom_site_fract_z
 _atom_site_occupancy
  Li  Li0  1  0.34900228  0.34058347  0.15668896  1
  Li  Li1  1  0.34900478  0.15941927  0.65669017  1
  Li  Li2  1  0.84900229  0.15941740  0.84331277  1
  Li  Li3  1  0.15099240  0.65941814  0.65668818  1
  Li  Li4  1  0.65099595  0.84058176  0.34330937  1
  Li  Li5  1  0.15100003  0.84058271  0.15668831  1
  Li  Li6  1  0.84900518  0.34058435  0.34331126  1
  Li  Li7  1  0.65099684  0.65941458  0.84331107  1
  I  I8  1  0.15080199  0.35645844  0.85376666  1
  I  I9  1  0.15080313  0.14354009  0.35376689  1
  I  I10  1  0.65080061  0.14354072  0.14623286  1
  I  I11  1  0.34919571  0.64354068  0.35376660  1
  I  I12  1  0.84919583  0.85645910  0.64623313  1
  I  I13  1  0.34919907  0.85645943  0.85376672  1
  I  I14  1  0.65080494  0.35645799  0.64623429  1
  I  I15  1  0.84919896  0.64354189  0.14623277  1
