# generated using pymatgen
data_LiBr
_symmetry_space_group_name_H-M   'P 1'
_cell_length_a   11.44321362
_cell_length_b   11.44322389
_cell_length_c   7.96250329
_cell_angle_alpha   90.00359943
_cell_angle_beta   89.99636689
_cell_angle_gamma   120.00374520
_symmetry_Int_Tables_number   1
_chemical_formula_structural   LiBr
_chemical_formula_sum   'Li18 Br18'
_cell_volume   902.94285249
_cell_formula_units_Z   18
loop_
 _symmetry_equiv_pos_site_id
 _symmetry_equiv_pos_as_xyz
  1  'x, y, z'
loop_
 _atom_site_type_symbol
 _atom_site_label
 _atom_site_symmetry_multiplicity
 _atom_site_fract_x
 _atom_site_fract_y
 _atom_site_fract_z
 _atom_site_occupancy
  Li  Li0  1  0.26100792  0.13134736  0.55089529  1
  Li  Li1  1  0.26097905  0.12966916  0.05093676  1
  Li  Li2  1  0.20192080  0.40551914  0.71729349  1
  Li  Li3  1  0.20359653  0.79804221  0.71733384  1
  Li  Li4  1  0.53546359  0.46326487  0.88394113  1
  Li  Li5  1  0.86867334  0.12964735  0.55089415  1
  Li  Li6  1  0.20356627  0.40554717  0.21732504  1
  Li  Li7  1  0.20195439  0.79640596  0.21733049  1
  Li  Li8  1  0.87033440  0.73902758  0.55093466  1
  Li  Li9  1  0.87034981  0.13132502  0.05089401  1
  Li  Li10  1  0.59447037  0.79807730  0.21729736  1
  Li  Li11  1  0.59444804  0.79642924  0.71733034  1
  Li  Li12  1  0.53670515  0.07220231  0.88387430  1
  Li  Li13  1  0.53673641  0.46453852  0.38394015  1
  Li  Li14  1  0.86865604  0.73899640  0.05089504  1
  Li  Li15  1  0.53547538  0.07217204  0.38388740  1
  Li  Li16  1  -0.07217110  0.46452696  0.88388946  1
  Li  Li17  1  -0.07219992  0.46329621  0.38387968  1
  Br  Br18  1  0.42594465  0.21360582  0.31032969  1
  Br  Br19  1  0.42589222  0.21233595  0.81034830  1
  Br  Br20  1  0.11962671  0.24072616  0.47686227  1
  Br  Br21  1  0.12112467  0.88039215  0.47690749  1
  Br  Br22  1  0.45292426  0.54545984  0.64343537  1
  Br  Br23  1  0.78643189  0.21232554  0.31032362  1
  Br  Br24  1  0.12112925  0.24074868  0.97688334  1
  Br  Br25  1  0.11960623  0.87887593  0.97690725  1
  Br  Br26  1  0.78766762  0.57411171  0.31034827  1
  Br  Br27  1  0.78767479  0.21356969  0.81032153  1
  Br  Br28  1  0.75926823  0.88036939  0.97686604  1
  Br  Br29  1  0.75924560  0.87886731  0.47688375  1
  Br  Br30  1  0.45454163  0.90745088  0.64337367  1
  Br  Br31  1  0.45453857  0.54707629  0.14343334  1
  Br  Br32  1  0.78639787  0.57406073  0.81033013  1
  Br  Br33  1  0.45292262  0.90745347  0.14334995  1
  Br  Br34  1  0.09254821  0.54707498  0.64335167  1
  Br  Br35  1  0.09254852  0.54546069  0.14337439  1
