# generated using pymatgen
data_LiBr
_symmetry_space_group_name_H-M   'P 1'
_cell_length_a   4.16881650
_cell_length_b   4.16838080
_cell_length_c   10.20395238
_cell_angle_alpha   90.00039112
_cell_angle_beta   90.01812069
_cell_angle_gamma   119.98315200
_symmetry_Int_Tables_number   1
_chemical_formula_structural   LiBr
_chemical_formula_sum   'Li3 Br3'
_cell_volume   153.58644839
_cell_formula_units_Z   3
loop_
 _symmetry_equiv_pos_site_id
 _symmetry_equiv_pos_as_xyz
  1  'x, y, z'
loop_
 _atom_site_type_symbol
 _atom_site_label
 _atom_site_symmetry_multiplicity
 _atom_site_fract_x
 _atom_site_fract_y
 _atom_site_fract_z
 _atom_site_occupancy
  Li  Li0  1  0.00079933  0.33295524  0.43052218  1
  Li  Li1  1  0.66680943  0.66785177  0.09731355  1
  Li  Li2  1  0.33206782  -0.00092116  0.76410175  1
  Br  Br3  1  0.33343838  0.00122614  0.01409799  1
  Br  Br4  1  -0.00116748  0.33216775  0.68084653  1
  Br  Br5  1  0.66805251  0.66672026  0.34760547  1
