# generated using pymatgen
data_LiBr
_symmetry_space_group_name_H-M   'P 1'
_cell_length_a   4.18866183
_cell_length_b   7.33912579
_cell_length_c   6.61879585
_cell_angle_alpha   90.00000737
_cell_angle_beta   90.78975638
_cell_angle_gamma   90.00001420
_symmetry_Int_Tables_number   1
_chemical_formula_structural   LiBr
_chemical_formula_sum   'Li4 Br4'
_cell_volume   203.44984261
_cell_formula_units_Z   4
loop_
 _symmetry_equiv_pos_site_id
 _symmetry_equiv_pos_as_xyz
  1  'x, y, z'
loop_
 _atom_site_type_symbol
 _atom_site_label
 _atom_site_symmetry_multiplicity
 _atom_site_fract_x
 _atom_site_fract_y
 _atom_site_fract_z
 _atom_site_occupancy
  Li  Li0  1  0.04672118  0.16865610  0.02246339  1
  Li  Li1  1  0.54672274  0.66865576  0.02247039  1
  Li  Li2  1  0.04672671  0.83133875  0.52246614  1
  Li  Li3  1  0.54671887  0.33134916  0.52246681  1
  Br  Br4  1  0.54457997  0.66334706  0.40702058  1
  Br  Br5  1  0.04458355  0.16334424  0.40701962  1
  Br  Br6  1  0.54458149  0.33665345  0.90701793  1
  Br  Br7  1  0.04458150  0.83665549  0.90702287  1
