# generated using pymatgen
data_LiBr
_symmetry_space_group_name_H-M   'P 1'
_cell_length_a   7.32748024
_cell_length_b   7.32743375
_cell_length_c   14.01267416
_cell_angle_alpha   89.97875450
_cell_angle_beta   89.97717532
_cell_angle_gamma   120.00343300
_symmetry_Int_Tables_number   1
_chemical_formula_structural   LiBr
_chemical_formula_sum   'Li9 Br9'
_cell_volume   651.54296273
_cell_formula_units_Z   9
loop_
 _symmetry_equiv_pos_site_id
 _symmetry_equiv_pos_as_xyz
  1  'x, y, z'
loop_
 _atom_site_type_symbol
 _atom_site_label
 _atom_site_symmetry_multiplicity
 _atom_site_fract_x
 _atom_site_fract_y
 _atom_site_fract_z
 _atom_site_occupancy
  Li  Li0  1  0.66706183  0.00036417  0.85283416  1
  Li  Li1  1  0.33294220  0.33338717  0.52010272  1
  Li  Li2  1  0.00041392  0.66701774  0.52011147  1
  Li  Li3  1  0.66628635  -0.00001699  0.18609395  1
  Li  Li4  1  0.33369128  0.33367995  0.18609957  1
  Li  Li5  1  -0.00001636  0.66627601  0.18610949  1
  Li  Li6  1  -0.00037540  0.66669315  0.85283523  1
  Li  Li7  1  0.66658237  -0.00045287  0.52010516  1
  Li  Li8  1  0.33328024  0.33291614  0.85283936  1
  Br  Br9  1  0.66691203  0.66643895  0.51782567  1
  Br  Br10  1  0.66690055  0.66710159  0.18422607  1
  Br  Br11  1  0.00022339  0.33311859  0.18423161  1
  Br  Br12  1  0.00022364  0.33379956  0.85106640  1
  Br  Br13  1  0.33359058  -0.00018709  0.85108137  1
  Br  Br14  1  0.66624198  0.66645153  0.85106332  1
  Br  Br15  1  0.33357752  0.00048786  0.51782835  1
  Br  Br16  1  0.33292603  -0.00019271  0.18422887  1
  Br  Br17  1  -0.00046215  0.33311726  0.51783910  1
