# generated using pymatgen
data_LiI
_symmetry_space_group_name_H-M   'P 1'
_cell_length_a   4.08216050
_cell_length_b   16.81710080
_cell_length_c   8.02080617
_cell_angle_alpha   89.99091729
_cell_angle_beta   89.99998263
_cell_angle_gamma   89.99996111
_symmetry_Int_Tables_number   1
_chemical_formula_structural   LiI
_chemical_formula_sum   'Li8 I8'
_cell_volume   550.62917618
_cell_formula_units_Z   8
loop_
 _symmetry_equiv_pos_site_id
 _symmetry_equiv_pos_as_xyz
  1  'x, y, z'
loop_
 _atom_site_type_symbol
 _atom_site_label
 _atom_site_symmetry_multiplicity
 _atom_site_fract_x
 _atom_site_fract_y
 _atom_site_fract_z
 _atom_site_occupancy
  Li  Li0  1  0.50090663  0.13972757  -0.02084290  1
  Li  Li1  1  0.00090724  0.36027335  0.47915827  1
  Li  Li2  1  0.49909110  0.13973011  0.47915713  1
  Li  Li3  1  0.49909032  0.86026512  -0.02083178  1
  Li  Li4  1  0.50091134  0.86026742  0.47916810  1
  Li  Li5  1  -0.00090592  0.63973567  0.47917065  1
  Li  Li6  1  -0.00090608  0.36026923  -0.02084146  1
  Li  Li7  1  0.00090704  0.63973171  -0.02082985  1
  I  I8  1  0.00113908  0.86713858  0.22875400  1
  I  I9  1  0.50114662  0.63286125  0.72875293  1
  I  I10  1  0.99885991  0.86713749  0.72875385  1
  I  I11  1  0.99885334  0.13286016  0.22874051  1
  I  I12  1  0.00114472  0.13285896  0.72874070  1
  I  I13  1  0.49885278  0.36713972  0.72874610  1
  I  I14  1  0.49885388  0.63286255  0.22875304  1
  I  I15  1  0.50114800  0.36714111  0.22874600  1
