# generated using pymatgen
data_NaI
_symmetry_space_group_name_H-M   'P 1'
_cell_length_a   20.45206566
_cell_length_b   20.45517219
_cell_length_c   8.31547724
_cell_angle_alpha   90.00474731
_cell_angle_beta   90.00480344
_cell_angle_gamma   89.99930853
_symmetry_Int_Tables_number   1
_chemical_formula_structural   NaI
_chemical_formula_sum   'Na16 I16'
_cell_volume   3478.78423979
_cell_formula_units_Z   16
loop_
 _symmetry_equiv_pos_site_id
 _symmetry_equiv_pos_as_xyz
  1  'x, y, z'
loop_
 _atom_site_type_symbol
 _atom_site_label
 _atom_site_symmetry_multiplicity
 _atom_site_fract_x
 _atom_site_fract_y
 _atom_site_fract_z
 _atom_site_occupancy
  Na  Na0  1  0.56261550  0.34742313  0.32496441  1
  Na  Na1  1  0.65258474  0.56261792  0.32497689  1
  Na  Na2  1  0.56260314  0.65257402  0.82500004  1
  Na  Na3  1  0.15258476  0.06261693  0.82497890  1
  Na  Na4  1  0.06260291  0.15257414  0.32500088  1
  Na  Na5  1  0.84741860  0.93736181  0.82492267  1
  Na  Na6  1  0.06261409  0.84742301  0.82496732  1
  Na  Na7  1  0.93739058  0.15256798  0.82498413  1
  Na  Na8  1  0.84741221  0.06262970  0.32494228  1
  Na  Na9  1  0.93737775  0.84742954  0.32494704  1
  Na  Na10  1  0.15257946  0.93737640  0.32496156  1
  Na  Na11  1  0.43739039  0.65256802  0.32498316  1
  Na  Na12  1  0.34741883  0.43736144  0.32492035  1
  Na  Na13  1  0.34741218  0.56263071  0.82494031  1
  Na  Na14  1  0.43737687  0.34742974  0.82494383  1
  Na  Na15  1  0.65257933  0.43737579  0.82495925  1
  I  I16  1  0.32868539  0.57158107  0.18404804  1
  I  I17  1  0.42841321  0.32866457  0.18399960  1
  I  I18  1  0.32866909  0.42842002  0.68402218  1
  I  I19  1  -0.07158771  0.82866454  0.68400213  1
  I  I20  1  0.82867008  -0.07158072  0.18402428  1
  I  I21  1  0.07159558  0.17132615  0.68406396  1
  I  I22  1  0.82868559  0.07158129  0.68404958  1
  I  I23  1  0.17133803  -0.07158795  0.68406292  1
  I  I24  1  0.07158841  0.82868216  0.18402843  1
  I  I25  1  0.17132310  0.07158988  0.18408738  1
  I  I26  1  -0.07159391  0.17134331  0.18403951  1
  I  I27  1  0.67133923  0.42841285  0.18406074  1
  I  I28  1  0.57159528  0.67132724  0.18406312  1
  I  I29  1  0.57158785  0.32868171  0.68402619  1
  I  I30  1  0.67132314  0.57158936  0.68408592  1
  I  I31  1  0.42840631  0.67134427  0.68403854  1
