# generated using pymatgen
data_LiBr
_symmetry_space_group_name_H-M   'P 1'
_cell_length_a   7.86389844
_cell_length_b   7.86416020
_cell_length_c   6.50583694
_cell_angle_alpha   90.00134639
_cell_angle_beta   90.00337603
_cell_angle_gamma   89.99867188
_symmetry_Int_Tables_number   1
_chemical_formula_structural   LiBr
_chemical_formula_sum   'Li8 Br8'
_cell_volume   402.34019379
_cell_formula_units_Z   8
loop_
 _symmetry_equiv_pos_site_id
 _symmetry_equiv_pos_as_xyz
  1  'x, y, z'
loop_
 _atom_site_type_symbol
 _atom_site_label
 _atom_site_symmetry_multiplicity
 _atom_site_fract_x
 _atom_site_fract_y
 _atom_site_fract_z
 _atom_site_occupancy
  Li  Li0  1  0.25870416  0.24004204  0.50059754  1
  Li  Li1  1  0.25995262  0.24129876  0.00051559  1
  Li  Li2  1  0.75869749  0.25995720  -0.00054352  1
  Li  Li3  1  0.74004532  0.75870132  0.00056561  1
  Li  Li4  1  0.24129738  0.74004593  -0.00054547  1
  Li  Li5  1  0.74129974  0.75995905  0.50054669  1
  Li  Li6  1  0.75995051  0.25869988  0.49942952  1
  Li  Li7  1  0.24005166  0.74129487  0.49943866  1
  Br  Br8  1  0.75020576  0.00921226  0.24962846  1
  Br  Br9  1  0.49077085  0.74979736  0.74962564  1
  Br  Br10  1  0.25020303  0.49085929  0.25037057  1
  Br  Br11  1  0.50916856  0.25020645  0.74962989  1
  Br  Br12  1  0.74979501  0.50918908  0.25037253  1
  Br  Br13  1  0.24979500  0.99073705  0.24962921  1
  Br  Br14  1  0.99082860  0.75020482  0.75036850  1
  Br  Br15  1  0.00923429  0.24979463  0.75037056  1
