# generated using pymatgen
data_LiBr
_symmetry_space_group_name_H-M   'P 1'
_cell_length_a   11.91750107
_cell_length_b   11.91750248
_cell_length_c   7.31002516
_cell_angle_alpha   90.00149054
_cell_angle_beta   89.99839448
_cell_angle_gamma   120.00341983
_symmetry_Int_Tables_number   1
_chemical_formula_structural   LiBr
_chemical_formula_sum   'Li18 Br18'
_cell_volume   899.09376715
_cell_formula_units_Z   18
loop_
 _symmetry_equiv_pos_site_id
 _symmetry_equiv_pos_as_xyz
  1  'x, y, z'
loop_
 _atom_site_type_symbol
 _atom_site_label
 _atom_site_symmetry_multiplicity
 _atom_site_fract_x
 _atom_site_fract_y
 _atom_site_fract_z
 _atom_site_occupancy
  Li  Li0  1  0.54193022  0.70952912  0.02168658  1
  Li  Li1  1  0.54192593  0.83239790  0.52168186  1
  Li  Li2  1  0.62386281  0.12480601  0.18840930  1
  Li  Li3  1  0.50093858  0.37613454  0.18841068  1
  Li  Li4  1  0.95720679  0.16581721  0.35502575  1
  Li  Li5  1  0.29047316  0.83241143  0.02169108  1
  Li  Li6  1  0.50095229  0.12481179  0.68840272  1
  Li  Li7  1  0.62386488  0.49906080  0.68840990  1
  Li  Li8  1  0.16759982  0.45807339  0.02168283  1
  Li  Li9  1  0.16759145  0.70952763  0.52168982  1
  Li  Li10  1  0.87519248  0.37613841  0.68840870  1
  Li  Li11  1  0.87518814  0.49904800  0.18840193  1
  Li  Li12  1  0.83418201  0.79138894  0.35502015  1
  Li  Li13  1  0.83418693  0.04279586  0.85502126  1
  Li  Li14  1  0.29047001  0.45806928  0.52168704  1
  Li  Li15  1  0.95721272  0.79138917  0.85502949  1
  Li  Li16  1  0.20861120  0.04278651  0.35503048  1
  Li  Li17  1  0.20861161  0.16581825  0.85502186  1
  Br  Br18  1  0.79149947  0.83431005  0.02299529  1
  Br  Br19  1  0.79149825  0.95718637  0.52299556  1
  Br  Br20  1  0.49901781  0.87519917  0.18964681  1
  Br  Br21  1  0.37618012  0.50098175  0.18964859  1
  Br  Br22  1  0.83233228  0.29049110  0.35639762  1
  Br  Br23  1  0.16568783  0.95719052  0.02300104  1
  Br  Br24  1  0.37617914  0.87520123  0.68965023  1
  Br  Br25  1  0.49901658  0.62381783  0.68964834  1
  Br  Br26  1  0.04281464  0.20850202  0.02299818  1
  Br  Br27  1  0.04280968  0.83431125  0.52300047  1
  Br  Br28  1  0.12479943  0.50098123  0.68964675  1
  Br  Br29  1  0.12479871  0.62382157  0.18964916  1
  Br  Br30  1  0.70950405  0.54183494  0.35639508  1
  Br  Br31  1  0.70950969  0.16766772  0.85639719  1
  Br  Br32  1  0.16569084  0.20850010  0.52299824  1
  Br  Br33  1  0.83233747  0.54184214  0.85639222  1
  Br  Br34  1  0.45815794  0.16766149  0.35639248  1
  Br  Br35  1  0.45816505  0.29049527  0.85639593  1
