# generated using pymatgen
data_LiI
_symmetry_space_group_name_H-M   'P 1'
_cell_length_a   13.02778482
_cell_length_b   13.02756441
_cell_length_c   8.00209953
_cell_angle_alpha   89.95866596
_cell_angle_beta   90.04162914
_cell_angle_gamma   119.94862799
_symmetry_Int_Tables_number   1
_chemical_formula_structural   LiI
_chemical_formula_sum   'Li18 I18'
_cell_volume   1176.77333245
_cell_formula_units_Z   18
loop_
 _symmetry_equiv_pos_site_id
 _symmetry_equiv_pos_as_xyz
  1  'x, y, z'
loop_
 _atom_site_type_symbol
 _atom_site_label
 _atom_site_symmetry_multiplicity
 _atom_site_fract_x
 _atom_site_fract_y
 _atom_site_fract_z
 _atom_site_occupancy
  Li  Li0  1  0.83198873  0.29059989  0.39724978  1
  Li  Li1  1  0.83284739  0.54155644  0.89747578  1
  Li  Li2  1  0.04289330  0.83478914  0.56422085  1
  Li  Li3  1  0.79229031  -0.04276570  0.56589619  1
  Li  Li4  1  0.37577674  0.87427841  0.73183354  1
  Li  Li5  1  0.70902207  0.54104951  0.39828750  1
  Li  Li6  1  0.79133333  0.83403485  0.06487949  1
  Li  Li7  1  0.04275987  0.20770271  0.06589781  1
  Li  Li8  1  0.45845160  0.16716667  0.39749364  1
  Li  Li9  1  0.45894758  0.29098539  0.89826000  1
  Li  Li10  1  0.16523181  -0.04289819  0.06422268  1
  Li  Li11  1  0.16596110  0.20866746  0.56487107  1
  Li  Li12  1  0.12491215  0.50077038  0.73110028  1
  Li  Li13  1  0.12571306  0.62423329  0.23184627  1
  Li  Li14  1  0.70940074  0.16801317  0.89727241  1
  Li  Li15  1  0.37576457  0.50130250  0.23064525  1
  Li  Li16  1  0.49869329  0.62424211  0.73064932  1
  Li  Li17  1  0.49923359  0.87508925  0.23108764  1
  I  I18  1  0.87560911  0.49983702  0.23009310  1
  I  I19  1  0.87508168  0.37586666  0.72918695  1
  I  I20  1  0.83348607  0.79111182  0.39708258  1
  I  I21  1  0.95746343  0.16584565  0.39743354  1
  I  I22  1  0.16736477  0.70931133  0.56346567  1
  I  I23  1  0.50048928  0.37580307  0.23044911  1
  I  I24  1  0.95736783  0.79157179  0.89640036  1
  I  I25  1  0.83414286  0.04252994  0.89744070  1
  I  I26  1  0.62412296  0.12491280  0.22919072  1
  I  I27  1  0.62419469  0.49951500  0.73046505  1
  I  I28  1  0.20888768  0.16650839  0.89708545  1
  I  I29  1  0.20843790  0.04263257  0.39639964  1
  I  I30  1  0.29061853  0.45841353  0.56263748  1
  I  I31  1  0.29069273  0.83262396  0.06345327  1
  I  I32  1  0.50016762  0.12438592  0.73011515  1
  I  I33  1  0.16669075  0.45762732  0.06326251  1
  I  I34  1  0.54237345  0.83330527  0.56324504  1
  I  I35  1  0.54158741  0.70938066  0.06262959  1
