# generated using pymatgen
data_LiBr
_symmetry_space_group_name_H-M   'P 1'
_cell_length_a   11.55576324
_cell_length_b   11.55576253
_cell_length_c   7.92702999
_cell_angle_alpha   90.01130668
_cell_angle_beta   89.98862281
_cell_angle_gamma   120.01040888
_symmetry_Int_Tables_number   1
_chemical_formula_structural   LiBr
_chemical_formula_sum   'Li18 Br18'
_cell_volume   916.62733441
_cell_formula_units_Z   18
loop_
 _symmetry_equiv_pos_site_id
 _symmetry_equiv_pos_as_xyz
  1  'x, y, z'
loop_
 _atom_site_type_symbol
 _atom_site_label
 _atom_site_symmetry_multiplicity
 _atom_site_fract_x
 _atom_site_fract_y
 _atom_site_fract_z
 _atom_site_occupancy
  Li  Li0  1  0.74036237  0.87067959  0.84917291  1
  Li  Li1  1  0.74035772  0.86968050  0.34917171  1
  Li  Li2  1  0.46261695  0.92625388  0.01550804  1
  Li  Li3  1  0.46364676  0.53737279  0.01547615  1
  Li  Li4  1  0.79588156  0.20301799  0.18269266  1
  Li  Li5  1  0.12930871  0.86970418  0.84917041  1
  Li  Li6  1  0.46364329  0.92625981  0.51550367  1
  Li  Li7  1  0.46262927  0.53635213  0.51547711  1
  Li  Li8  1  0.13031524  0.25964185  0.84916689  1
  Li  Li9  1  0.13029744  0.87069105  0.34917256  1
  Li  Li10  1  0.07375124  0.53738280  0.51550471  1
  Li  Li11  1  0.07374161  0.53635795  0.01550183  1
  Li  Li12  1  0.79700530  0.59289574  0.18273325  1
  Li  Li13  1  0.79697823  0.20411729  0.68269183  1
  Li  Li14  1  0.12931796  0.25963434  0.34916936  1
  Li  Li15  1  0.79591179  0.59289475  0.68273961  1
  Li  Li16  1  0.40710436  0.20409153  0.18273073  1
  Li  Li17  1  0.40710451  0.20299701  0.68272396  1
  Br  Br18  1  0.57465327  0.78701124  0.58813033  1
  Br  Br19  1  0.57465195  0.78764441  0.08813434  1
  Br  Br20  1  0.54631061  0.09196999  0.75467703  1
  Br  Br21  1  0.54567912  0.45367035  0.75467501  1
  Br  Br22  1  0.87970625  0.12090158  0.92177961  1
  Br  Br23  1  0.21299435  0.78764681  0.58813044  1
  Br  Br24  1  0.54566393  0.09197944  0.25467551  1
  Br  Br25  1  0.54632961  0.45432341  0.25467136  1
  Br  Br26  1  0.21235727  0.42534567  0.58812871  1
  Br  Br27  1  0.21235163  0.78700707  0.08812942  1
  Br  Br28  1  0.90802974  0.45368751  0.25467598  1
  Br  Br29  1  0.90802477  0.45433587  0.75467408  1
  Br  Br30  1  0.87908985  0.75880385  0.92181552  1
  Br  Br31  1  0.87909706  0.12029194  0.42177801  1
  Br  Br32  1  0.21298691  0.42534548  0.08812745  1
  Br  Br33  1  0.87970223  0.75879996  0.42181582  1
  Br  Br34  1  0.24119926  0.12029938  0.92180909  1
  Br  Br35  1  0.24119789  0.12091083  0.42180571  1
