# generated using pymatgen
data_NaI
_symmetry_space_group_name_H-M   'P 1'
_cell_length_a   5.20427977
_cell_length_b   9.08114307
_cell_length_c   9.23973195
_cell_angle_alpha   90.00019611
_cell_angle_beta   123.86734704
_cell_angle_gamma   89.99959581
_symmetry_Int_Tables_number   1
_chemical_formula_structural   NaI
_chemical_formula_sum   'Na4 I4'
_cell_volume   362.58619064
_cell_formula_units_Z   4
loop_
 _symmetry_equiv_pos_site_id
 _symmetry_equiv_pos_as_xyz
  1  'x, y, z'
loop_
 _atom_site_type_symbol
 _atom_site_label
 _atom_site_symmetry_multiplicity
 _atom_site_fract_x
 _atom_site_fract_y
 _atom_site_fract_z
 _atom_site_occupancy
  Na  Na0  1  0.32771869  0.58006113  0.22645556  1
  Na  Na1  1  0.82772079  0.08006060  0.22645830  1
  Na  Na2  1  0.32772162  0.41993848  0.72645930  1
  Na  Na3  1  0.82772190  0.91993923  0.72645974  1
  I  I4  1  0.42036609  0.91242065  0.31999280  1
  I  I5  1  0.92036677  0.41242071  0.31999257  1
  I  I6  1  0.42036423  0.08757971  0.81999353  1
  I  I7  1  0.92036336  0.58757949  0.81999207  1
