# generated using pymatgen
data_LiBr
_symmetry_space_group_name_H-M   'P 1'
_cell_length_a   11.34262450
_cell_length_b   11.34262202
_cell_length_c   8.00748590
_cell_angle_alpha   90.00854660
_cell_angle_beta   89.99145003
_cell_angle_gamma   120.00647252
_symmetry_Int_Tables_number   1
_chemical_formula_structural   LiBr
_chemical_formula_sum   'Li18 Br18'
_cell_volume   892.12455643
_cell_formula_units_Z   18
loop_
 _symmetry_equiv_pos_site_id
 _symmetry_equiv_pos_as_xyz
  1  'x, y, z'
loop_
 _atom_site_type_symbol
 _atom_site_label
 _atom_site_symmetry_multiplicity
 _atom_site_fract_x
 _atom_site_fract_y
 _atom_site_fract_z
 _atom_site_occupancy
  Li  Li0  1  0.73771084  0.86721841  0.12997268  1
  Li  Li1  1  0.73772637  0.87048777  0.62996519  1
  Li  Li2  1  0.46611626  0.92895344  0.29663737  1
  Li  Li3  1  0.46285959  0.53389396  0.29664318  1
  Li  Li4  1  0.79943848  0.20380723  0.46331189  1
  Li  Li5  1  0.13277203  0.87047292  0.12997711  1
  Li  Li6  1  0.46284765  0.92894164  0.79662943  1
  Li  Li7  1  0.46610662  0.53713984  0.79664247  1
  Li  Li8  1  0.12951192  0.26227346  0.12996256  1
  Li  Li9  1  0.12952624  0.86722791  0.62997701  1
  Li  Li10  1  0.07104602  0.53388403  0.79664051  1
  Li  Li11  1  0.07105960  0.53715286  0.29663374  1
  Li  Li12  1  0.79618178  0.59560938  0.46329418  1
  Li  Li13  1  0.79619313  0.20056148  0.96331288  1
  Li  Li14  1  0.13278207  0.26228666  0.62997128  1
  Li  Li15  1  0.79944917  0.59562203  0.96330240  1
  Li  Li16  1  0.40437794  0.20055160  0.46330463  1
  Li  Li17  1  0.40439256  0.20381960  0.96329960  1
  Br  Br18  1  0.88120806  0.75935039  0.20525137  1
  Br  Br19  1  0.88118981  0.12186944  0.70521106  1
  Br  Br20  1  0.57398424  0.78545764  0.37192056  1
  Br  Br21  1  0.21145192  0.42599749  0.37190599  1
  Br  Br22  1  0.90733557  0.45521544  0.53857467  1
  Br  Br23  1  0.24066798  0.12188049  0.20523839  1
  Br  Br24  1  0.21146476  0.78547646  0.87187665  1
  Br  Br25  1  0.57400104  0.78854725  0.87190558  1
  Br  Br26  1  0.87813055  0.11881023  0.20521122  1
  Br  Br27  1  0.87811899  0.75933122  0.70523862  1
  Br  Br28  1  0.21454215  0.42601577  0.87192097  1
  Br  Br29  1  0.21452304  0.78853555  0.37187603  1
  Br  Br30  1  0.54479831  0.45214253  0.53854259  1
  Br  Br31  1  0.54478530  0.09266373  0.03857289  1
  Br  Br32  1  0.24065124  0.11879171  0.70525402  1
  Br  Br33  1  0.90731779  0.45212504  0.03858816  1
  Br  Br34  1  0.54787406  0.09268280  0.53858555  1
  Br  Br35  1  0.54785693  0.45520262  0.03854188  1
