# generated using pymatgen
data_LiBr
_symmetry_space_group_name_H-M   'P 1'
_cell_length_a   10.15470391
_cell_length_b   10.15470759
_cell_length_c   12.77050803
_cell_angle_alpha   90.01139200
_cell_angle_beta   89.98865422
_cell_angle_gamma   120.00209031
_symmetry_Int_Tables_number   1
_chemical_formula_structural   LiBr
_chemical_formula_sum   'Li18 Br18'
_cell_volume   1140.41870986
_cell_formula_units_Z   18
loop_
 _symmetry_equiv_pos_site_id
 _symmetry_equiv_pos_as_xyz
  1  'x, y, z'
loop_
 _atom_site_type_symbol
 _atom_site_label
 _atom_site_symmetry_multiplicity
 _atom_site_fract_x
 _atom_site_fract_y
 _atom_site_fract_z
 _atom_site_occupancy
  Li  Li0  1  0.33369083  0.41712994  0.80280088  1
  Li  Li1  1  0.33372932  0.91655752  0.30280221  1
  Li  Li2  1  0.91623397  0.33297535  0.96928056  1
  Li  Li3  1  0.41672204  0.08377939  0.96929326  1
  Li  Li4  1  0.24948522  0.24983690  0.13609736  1
  Li  Li5  1  0.58285635  0.91657819  0.80280438  1
  Li  Li6  1  0.41673616  0.33293102  0.46927731  1
  Li  Li7  1  0.91622051  0.58327802  0.46929323  1
  Li  Li8  1  0.08344233  0.66627064  0.80280212  1
  Li  Li9  1  0.08342182  0.41714372  0.30280435  1
  Li  Li10  1  0.66702463  0.08376701  0.46928047  1
  Li  Li11  1  0.66706907  0.58326333  0.96927724  1
  Li  Li12  1  0.75017513  -0.00036401  0.13608468  1
  Li  Li13  1  0.75016317  0.75051493  0.63609713  1
  Li  Li14  1  0.58287027  0.66630928  0.30280094  1
  Li  Li15  1  0.24949897  -0.00031655  0.63609567  1
  Li  Li16  1  0.00031613  0.75050098  0.13609558  1
  Li  Li17  1  0.00036415  0.24982441  0.63608464  1
  Br  Br18  1  0.74568975  0.74547161  0.13619540  1
  Br  Br19  1  0.74565550  0.00017042  0.63619980  1
  Br  Br20  1  0.58787026  -0.07904383  0.30286442  1
  Br  Br21  1  0.33304955  0.41211056  0.30287125  1
  Br  Br22  1  0.92118508  0.33362191  0.46952841  1
  Br  Br23  1  0.25454674  0.00025758  0.13620786  1
  Br  Br24  1  0.33313851  -0.07900080  0.80287135  1
  Br  Br25  1  0.58788986  0.66695061  0.80287149  1
  Br  Br26  1  -0.00017057  0.25434415  0.13620034  1
  Br  Br27  1  -0.00025763  0.74545317  0.63620742  1
  Br  Br28  1  0.07904426  0.41212959  0.80286439  1
  Br  Br29  1  0.07900052  0.66686138  0.30287098  1
  Br  Br30  1  0.66646484  0.58761819  0.46952811  1
  Br  Br31  1  0.66637858  0.07881542  0.96952796  1
  Br  Br32  1  0.25452805  0.25431017  0.63619538  1
  Br  Br33  1  0.92116831  0.58758327  0.96952256  1
  Br  Br34  1  0.41241671  0.07883150  0.46952269  1
  Br  Br35  1  0.41238161  0.33353505  0.96952776  1
