# generated using pymatgen
data_LiBr
_symmetry_space_group_name_H-M   'P 1'
_cell_length_a   12.20991936
_cell_length_b   10.93967983
_cell_length_c   7.76157909
_cell_angle_alpha   89.99997725
_cell_angle_beta   89.99992751
_cell_angle_gamma   90.10576063
_symmetry_Int_Tables_number   1
_chemical_formula_structural   LiBr
_chemical_formula_sum   'Li16 Br16'
_cell_volume   1036.73260010
_cell_formula_units_Z   16
loop_
 _symmetry_equiv_pos_site_id
 _symmetry_equiv_pos_as_xyz
  1  'x, y, z'
loop_
 _atom_site_type_symbol
 _atom_site_label
 _atom_site_symmetry_multiplicity
 _atom_site_fract_x
 _atom_site_fract_y
 _atom_site_fract_z
 _atom_site_occupancy
  Li  Li0  1  0.88481691  0.25025339  0.61636502  1
  Li  Li1  1  0.11518322  0.74974724  0.61636352  1
  Li  Li2  1  0.36521987  0.49992239  0.86598152  1
  Li  Li3  1  0.61518324  0.74974653  0.11636450  1
  Li  Li4  1  0.86522243  0.49992248  0.36598292  1
  Li  Li5  1  0.13477853  0.00007707  0.86598396  1
  Li  Li6  1  0.38481829  0.25025349  0.11636544  1
  Li  Li7  1  0.86522084  -0.00007790  0.86598312  1
  Li  Li8  1  0.13477887  0.50007884  0.36598144  1
  Li  Li9  1  0.38481567  0.75025332  0.61636569  1
  Li  Li10  1  0.61518521  0.24974772  0.61636460  1
  Li  Li11  1  0.36522009  -0.00007801  0.36598270  1
  Li  Li12  1  0.63477832  0.00007625  0.36598555  1
  Li  Li13  1  0.63477888  0.50007765  0.86598306  1
  Li  Li14  1  0.88481431  0.75025301  0.11636409  1
  Li  Li15  1  0.11518573  0.24974616  0.11636410  1
  Br  Br16  1  0.50061846  0.67943371  -0.13444770  1
  Br  Br17  1  0.49938009  0.32056720  -0.13445074  1
  Br  Br18  1  0.74972534  0.92939487  0.11597840  1
  Br  Br19  1  -0.00061841  0.32056612  0.36555175  1
  Br  Br20  1  0.24972592  0.92939497  0.61597832  1
  Br  Br21  1  0.75027235  0.57060431  0.11598018  1
  Br  Br22  1  0.00061998  0.67943469  0.36554875  1
  Br  Br23  1  0.24972811  0.42939481  0.11598018  1
  Br  Br24  1  0.75027388  0.07060547  0.61597866  1
  Br  Br25  1  0.00061919  0.17943358  -0.13444720  1
  Br  Br26  1  -0.00062037  0.82056592  -0.13444949  1
  Br  Br27  1  0.74972786  0.42939570  0.61597910  1
  Br  Br28  1  0.25027255  0.57060567  0.61597769  1
  Br  Br29  1  0.25027589  0.07060500  0.11597489  1
  Br  Br30  1  0.50061952  0.17943284  0.36555333  1
  Br  Br31  1  0.49937919  0.82056552  0.36555122  1
