# generated using pymatgen
data_LiBr
_symmetry_space_group_name_H-M   'P 1'
_cell_length_a   4.19286230
_cell_length_b   4.19286010
_cell_length_c   10.00920854
_cell_angle_alpha   90.00100069
_cell_angle_beta   89.99912482
_cell_angle_gamma   120.00038997
_symmetry_Int_Tables_number   1
_chemical_formula_structural   LiBr
_chemical_formula_sum   'Li3 Br3'
_cell_volume   152.38760194
_cell_formula_units_Z   3
loop_
 _symmetry_equiv_pos_site_id
 _symmetry_equiv_pos_as_xyz
  1  'x, y, z'
loop_
 _atom_site_type_symbol
 _atom_site_label
 _atom_site_symmetry_multiplicity
 _atom_site_fract_x
 _atom_site_fract_y
 _atom_site_fract_z
 _atom_site_occupancy
  Li  Li0  1  0.67036694  0.66309271  0.03270293  1
  Li  Li1  1  0.33689756  0.00729702  0.36603409  1
  Li  Li2  1  -0.00726422  0.32961351  0.69936385  1
  Br  Br3  1  0.00258866  0.33983422  0.44661593  1
  Br  Br4  1  0.66019302  0.66276091  0.77994545  1
  Br  Br5  1  0.33721805  0.99740164  0.11327253  1
