# generated using pymatgen
data_LiI
_symmetry_space_group_name_H-M   'P 1'
_cell_length_a   7.81761333
_cell_length_b   4.72358356
_cell_length_c   7.55779580
_cell_angle_alpha   89.99990560
_cell_angle_beta   90.00008944
_cell_angle_gamma   89.99999776
_symmetry_Int_Tables_number   1
_chemical_formula_structural   LiI
_chemical_formula_sum   'Li4 I4'
_cell_volume   279.08785724
_cell_formula_units_Z   4
loop_
 _symmetry_equiv_pos_site_id
 _symmetry_equiv_pos_as_xyz
  1  'x, y, z'
loop_
 _atom_site_type_symbol
 _atom_site_label
 _atom_site_symmetry_multiplicity
 _atom_site_fract_x
 _atom_site_fract_y
 _atom_site_fract_z
 _atom_site_occupancy
  Li  Li0  1  0.90433870  0.00140817  0.10622384  1
  Li  Li1  1  0.09566170  0.50140600  0.39377430  1
  Li  Li2  1  0.59566227  -0.00140526  0.60622840  1
  Li  Li3  1  0.40433849  0.49859106  0.89377335  1
  I  I4  1  0.92593087  0.00166788  0.47754936  1
  I  I5  1  0.07406869  0.50166891  0.02244840  1
  I  I6  1  0.57406736  -0.00166914  0.97755275  1
  I  I7  1  0.42593193  0.49833239  0.52244960  1
