# generated using pymatgen
data_KI
_symmetry_space_group_name_H-M   'P 1'
_cell_length_a   9.74909032
_cell_length_b   4.53852911
_cell_length_c   8.45635796
_cell_angle_alpha   90.00018173
_cell_angle_beta   89.99998112
_cell_angle_gamma   89.99993863
_symmetry_Int_Tables_number   1
_chemical_formula_structural   KI
_chemical_formula_sum   'K4 I4'
_cell_volume   374.16449810
_cell_formula_units_Z   4
loop_
 _symmetry_equiv_pos_site_id
 _symmetry_equiv_pos_as_xyz
  1  'x, y, z'
loop_
 _atom_site_type_symbol
 _atom_site_label
 _atom_site_symmetry_multiplicity
 _atom_site_fract_x
 _atom_site_fract_y
 _atom_site_fract_z
 _atom_site_occupancy
  K  K0  1  0.87616041  0.50009639  -0.00790969  1
  K  K1  1  0.37616045  0.49993427  -0.00791004  1
  K  K2  1  0.12383944  0.49993416  0.49208826  1
  K  K3  1  0.62383908  0.50009624  0.49208882  1
  I  I4  1  0.37459233  0.00024470  0.65849270  1
  I  I5  1  0.87459363  -0.00027547  0.65849214  1
  I  I6  1  0.62540674  -0.00027494  0.15849394  1
  I  I7  1  0.12540792  0.00024466  0.15849442  1
