# generated using pymatgen
data_KCl
_symmetry_space_group_name_H-M   'P 1'
_cell_length_a   5.78893102
_cell_length_b   5.81472605
_cell_length_c   11.51288894
_cell_angle_alpha   89.99999392
_cell_angle_beta   138.38730214
_cell_angle_gamma   90.00000628
_symmetry_Int_Tables_number   1
_chemical_formula_structural   KCl
_chemical_formula_sum   'K4 Cl4'
_cell_volume   257.35946573
_cell_formula_units_Z   4
loop_
 _symmetry_equiv_pos_site_id
 _symmetry_equiv_pos_as_xyz
  1  'x, y, z'
loop_
 _atom_site_type_symbol
 _atom_site_label
 _atom_site_symmetry_multiplicity
 _atom_site_fract_x
 _atom_site_fract_y
 _atom_site_fract_z
 _atom_site_occupancy
  K  K0  1  0.02206450  0.62790114  0.49727711  1
  K  K1  1  0.52206450  0.12790110  0.49727712  1
  K  K2  1  0.02206454  0.37209974  -0.00272279  1
  K  K3  1  0.52206453  0.87209971  -0.00272281  1
  Cl  Cl4  1  0.28378245  0.12720579  0.67271792  1
  Cl  Cl5  1  0.78378246  0.62720584  0.67271791  1
  Cl  Cl6  1  0.28378105  0.87279332  0.17271873  1
  Cl  Cl7  1  0.78378105  0.37279336  0.17271875  1
