# generated using pymatgen
data_LiI
_symmetry_space_group_name_H-M   'P 1'
_cell_length_a   12.05425139
_cell_length_b   12.05427671
_cell_length_c   7.84237392
_cell_angle_alpha   89.99817068
_cell_angle_beta   90.00252186
_cell_angle_gamma   90.00012799
_symmetry_Int_Tables_number   1
_chemical_formula_structural   LiI
_chemical_formula_sum   'Li16 I16'
_cell_volume   1139.53835120
_cell_formula_units_Z   16
loop_
 _symmetry_equiv_pos_site_id
 _symmetry_equiv_pos_as_xyz
  1  'x, y, z'
loop_
 _atom_site_type_symbol
 _atom_site_label
 _atom_site_symmetry_multiplicity
 _atom_site_fract_x
 _atom_site_fract_y
 _atom_site_fract_z
 _atom_site_occupancy
  Li  Li0  1  0.37829363  0.94515070  0.28312969  1
  Li  Li1  1  0.44515929  0.37827381  0.53315161  1
  Li  Li2  1  0.62170938  0.94516629  0.78313429  1
  Li  Li3  1  0.62172461  0.05483888  0.28315165  1
  Li  Li4  1  0.55484569  0.62170951  0.53313100  1
  Li  Li5  1  0.05484632  0.87829686  0.53311383  1
  Li  Li6  1  0.94514806  0.12172097  0.53316652  1
  Li  Li7  1  0.55483973  0.37829403  0.03312284  1
  Li  Li8  1  0.44514825  0.62172741  0.03315681  1
  Li  Li9  1  0.12171974  0.55484476  0.78314859  1
  Li  Li10  1  0.05484464  0.12171157  0.03313952  1
  Li  Li11  1  0.87828888  0.44515204  0.78312816  1
  Li  Li12  1  0.94514905  0.87827458  0.03314760  1
  Li  Li13  1  0.12170593  0.44516689  0.28312800  1
  Li  Li14  1  0.87827293  0.55485209  0.28314953  1
  Li  Li15  1  0.37827639  0.05484892  0.78314720  1
  I  I16  1  0.05520597  0.34895257  0.97164896  1
  I  I17  1  0.84897647  0.05519290  0.22167558  1
  I  I18  1  0.94480049  0.34897398  0.47165170  1
  I  I19  1  0.94481134  0.65102046  0.97167551  1
  I  I20  1  0.15104805  0.94479307  0.22164164  1
  I  I21  1  0.65102832  0.55520463  0.22164508  1
  I  I22  1  0.34895736  0.44480755  0.22167468  1
  I  I23  1  0.15102758  0.05520651  0.72164824  1
  I  I24  1  0.84895676  0.94480628  0.72167089  1
  I  I25  1  0.44480774  0.15102382  0.47166938  1
  I  I26  1  0.65104969  0.44479258  0.72164472  1
  I  I27  1  0.55520357  0.84895340  0.47165076  1
  I  I28  1  0.34897713  0.55518532  0.72167410  1
  I  I29  1  0.44479533  0.84896987  0.97164836  1
  I  I30  1  0.55519075  0.15104145  0.97167038  1
  I  I31  1  0.05519092  0.65104631  0.47166991  1
