# generated using pymatgen
data_LiBr
_symmetry_space_group_name_H-M   'P 1'
_cell_length_a   10.14185302
_cell_length_b   10.95208641
_cell_length_c   8.76504838
_cell_angle_alpha   89.99989726
_cell_angle_beta   90.00002708
_cell_angle_gamma   90.02004214
_symmetry_Int_Tables_number   1
_chemical_formula_structural   LiBr
_chemical_formula_sum   'Li16 Br16'
_cell_volume   973.57287377
_cell_formula_units_Z   16
loop_
 _symmetry_equiv_pos_site_id
 _symmetry_equiv_pos_as_xyz
  1  'x, y, z'
loop_
 _atom_site_type_symbol
 _atom_site_label
 _atom_site_symmetry_multiplicity
 _atom_site_fract_x
 _atom_site_fract_y
 _atom_site_fract_z
 _atom_site_occupancy
  Li  Li0  1  -0.00024800  0.14758720  0.01087367  1
  Li  Li1  1  0.00024572  0.85241402  0.01087181  1
  Li  Li2  1  0.25029733  0.39764531  0.26099584  1
  Li  Li3  1  0.50024668  0.85241376  0.51087360  1
  Li  Li4  1  0.75029623  0.39764881  0.76099438  1
  Li  Li5  1  0.24970533  0.10234991  0.26099497  1
  Li  Li6  1  0.49975176  0.14758594  0.51087342  1
  Li  Li7  1  0.75029537  0.89764996  0.26099341  1
  Li  Li8  1  0.24970538  0.60235102  0.76099359  1
  Li  Li9  1  0.49975114  0.64758518  0.01087552  1
  Li  Li10  1  0.50024724  0.35241344  0.01087499  1
  Li  Li11  1  0.25029745  0.89764718  0.76099564  1
  Li  Li12  1  0.74970560  0.10235206  0.76099047  1
  Li  Li13  1  0.74970467  0.60235277  0.26099271  1
  Li  Li14  1  -0.00024863  0.64758644  0.51087583  1
  Li  Li15  1  0.00024742  0.35241609  0.51087398  1
  Br  Br16  1  0.05363355  0.74972359  0.76107307  1
  Br  Br17  1  0.94636869  0.25027655  0.76107292  1
  Br  Br18  1  0.19640848  -0.00018709  0.01109881  1
  Br  Br19  1  0.44636866  0.25027359  0.26106946  1
  Br  Br20  1  0.69640805  -0.00018729  0.51109893  1
  Br  Br21  1  0.30359082  0.50018676  0.01110060  1
  Br  Br22  1  0.55363129  0.74972534  0.26107059  1
  Br  Br23  1  0.69640841  0.49981262  0.01109961  1
  Br  Br24  1  0.30359148  0.00018698  0.51110270  1
  Br  Br25  1  0.55363325  0.24972694  0.76107360  1
  Br  Br26  1  0.44636836  0.75027258  0.76107301  1
  Br  Br27  1  0.19640934  0.49981417  0.51109838  1
  Br  Br28  1  0.80358889  0.50018891  0.51109963  1
  Br  Br29  1  0.80358975  0.00018763  0.01109725  1
  Br  Br30  1  0.05363340  0.24972399  0.26107488  1
  Br  Br31  1  0.94636690  0.75027566  0.26107356  1
