# generated using pymatgen
data_LiI
_symmetry_space_group_name_H-M   'P 1'
_cell_length_a   8.98596104
_cell_length_b   8.98605964
_cell_length_c   7.39864543
_cell_angle_alpha   90.00009406
_cell_angle_beta   90.00023528
_cell_angle_gamma   90.00020651
_symmetry_Int_Tables_number   1
_chemical_formula_structural   LiI
_chemical_formula_sum   'Li8 I8'
_cell_volume   597.42864676
_cell_formula_units_Z   8
loop_
 _symmetry_equiv_pos_site_id
 _symmetry_equiv_pos_as_xyz
  1  'x, y, z'
loop_
 _atom_site_type_symbol
 _atom_site_label
 _atom_site_symmetry_multiplicity
 _atom_site_fract_x
 _atom_site_fract_y
 _atom_site_fract_z
 _atom_site_occupancy
  Li  Li0  1  0.63720816  0.13672634  0.55640258  1
  Li  Li1  1  0.13672569  0.63720809  0.05640133  1
  Li  Li2  1  0.36279212  0.86327373  0.55640333  1
  Li  Li3  1  0.13672844  0.36279265  0.55639989  1
  Li  Li4  1  0.86327047  0.63720638  0.55640296  1
  Li  Li5  1  0.36279362  0.13672703  0.05640003  1
  Li  Li6  1  0.86327345  0.36279274  0.05639943  1
  Li  Li7  1  0.63720679  0.86327337  0.05640399  1
  I  I8  1  0.34122221  0.15873351  0.68182139  1
  I  I9  1  0.15873582  0.34122463  0.18182057  1
  I  I10  1  0.65877711  0.84126728  0.68182302  1
  I  I11  1  0.15873372  0.65877683  0.68182433  1
  I  I12  1  0.84126775  0.34122424  0.68182362  1
  I  I13  1  0.65877808  0.15872938  0.18182070  1
  I  I14  1  0.84126556  0.65877387  0.18182385  1
  I  I15  1  0.34122102  0.84126992  0.18182171  1
