# generated using pymatgen
data_LiI
_symmetry_space_group_name_H-M   'P 1'
_cell_length_a   17.54516218
_cell_length_b   17.54512917
_cell_length_c   8.62733778
_cell_angle_alpha   89.99994176
_cell_angle_beta   89.99983239
_cell_angle_gamma   90.00000293
_symmetry_Int_Tables_number   1
_chemical_formula_structural   LiI
_chemical_formula_sum   'Li32 I32'
_cell_volume   2655.77182391
_cell_formula_units_Z   32
loop_
 _symmetry_equiv_pos_site_id
 _symmetry_equiv_pos_as_xyz
  1  'x, y, z'
loop_
 _atom_site_type_symbol
 _atom_site_label
 _atom_site_symmetry_multiplicity
 _atom_site_fract_x
 _atom_site_fract_y
 _atom_site_fract_z
 _atom_site_occupancy
  Li  Li0  1  0.35480291  0.53694048  0.64920036  1
  Li  Li1  1  0.46305961  0.64519698  0.85079764  1
  Li  Li2  1  0.96305832  0.85480366  0.85079591  1
  Li  Li3  1  0.14519776  0.96305832  0.14920541  1
  Li  Li4  1  0.03694141  0.85480212  0.35079522  1
  Li  Li5  1  0.96305805  0.35480285  0.39920042  1
  Li  Li6  1  0.03694144  0.64519678  0.39920500  1
  Li  Li7  1  0.46305861  0.85480241  0.89920196  1
  Li  Li8  1  0.53694059  0.64519742  0.35079824  1
  Li  Li9  1  0.53694114  0.14519709  0.89920560  1
  Li  Li10  1  0.64519682  0.53694149  0.14920518  1
  Li  Li11  1  0.14519687  0.03694116  0.64920471  1
  Li  Li12  1  0.64519742  0.46305870  0.64920343  1
  Li  Li13  1  0.53694182  0.35480247  0.85079422  1
  Li  Li14  1  0.03694102  0.14519757  0.85079786  1
  Li  Li15  1  0.85480261  0.03694096  0.14920122  1
  Li  Li16  1  0.96306004  0.14519723  0.35079853  1
  Li  Li17  1  0.46305879  0.35480332  0.35079609  1
  Li  Li18  1  0.35480303  0.96305931  0.10079527  1
  Li  Li19  1  0.85480235  0.53694167  0.10079570  1
  Li  Li20  1  0.85480345  0.46305859  0.60079734  1
  Li  Li21  1  0.35480227  0.03694175  0.60079447  1
  Li  Li22  1  0.14519758  0.53694108  0.60079903  1
  Li  Li23  1  0.64519720  0.96305923  0.60079887  1
  Li  Li24  1  0.64519788  0.03694074  0.10079820  1
  Li  Li25  1  0.14519705  0.46305936  0.10079842  1
  Li  Li26  1  0.96305857  0.64519743  0.89920475  1
  Li  Li27  1  0.46305831  0.14519744  0.39920544  1
  Li  Li28  1  0.53694113  0.85480297  0.39920112  1
  Li  Li29  1  0.03694074  0.35480284  0.89920024  1
  Li  Li30  1  0.85480292  0.96305853  0.64920061  1
  Li  Li31  1  0.35480254  0.46305834  0.14920154  1
  I  I32  1  0.92274014  0.83534730  0.54933512  1
  I  I33  1  0.16465199  0.07725960  0.95066394  1
  I  I34  1  0.66465182  0.42274277  0.95066055  1
  I  I35  1  0.57725822  0.66465189  0.04933948  1
  I  I36  1  0.33534865  0.42274177  0.45065914  1
  I  I37  1  0.66465217  0.92274027  0.29933832  1
  I  I38  1  0.33534763  0.07725802  0.29933973  1
  I  I39  1  0.16465198  0.42274054  0.79933859  1
  I  I40  1  0.83534945  0.07725960  0.45066194  1
  I  I41  1  0.83534810  0.57725741  0.79934015  1
  I  I42  1  0.07725680  0.83534792  0.04933894  1
  I  I43  1  0.57725735  0.33534807  0.54933812  1
  I  I44  1  0.07725910  0.16465113  0.54933829  1
  I  I45  1  0.83534840  0.92274195  0.95066047  1
  I  I46  1  0.33534903  0.57725943  0.95066243  1
  I  I47  1  0.42274087  0.33534728  0.04933518  1
  I  I48  1  0.66465185  0.57725983  0.45066318  1
  I  I49  1  0.16465183  0.92274243  0.45066059  1
  I  I50  1  0.92274277  0.66465198  0.20066201  1
  I  I51  1  0.42274220  0.83534883  0.20066066  1
  I  I52  1  0.42274249  0.16465182  0.70066259  1
  I  I53  1  0.92274220  0.33534850  0.70065967  1
  I  I54  1  0.57725965  0.83534846  0.70066241  1
  I  I55  1  0.07725947  0.66465180  0.70066478  1
  I  I56  1  0.07725934  0.33534863  0.20066251  1
  I  I57  1  0.57725944  0.16465169  0.20066526  1
  I  I58  1  0.66465129  0.07725820  0.79933984  1
  I  I59  1  0.16465159  0.57725814  0.29934019  1
  I  I60  1  0.83534695  0.42274093  0.29933746  1
  I  I61  1  0.33534696  0.92274102  0.79933671  1
  I  I62  1  0.42273987  0.66465139  0.54933681  1
  I  I63  1  0.92274014  0.16465108  0.04933691  1
