# generated using pymatgen
data_KI
_symmetry_space_group_name_H-M   'P 1'
_cell_length_a   9.85272011
_cell_length_b   4.65385268
_cell_length_c   8.68545564
_cell_angle_alpha   89.99999626
_cell_angle_beta   90.00000111
_cell_angle_gamma   89.99998882
_symmetry_Int_Tables_number   1
_chemical_formula_structural   KI
_chemical_formula_sum   'K4 I4'
_cell_volume   398.25513404
_cell_formula_units_Z   4
loop_
 _symmetry_equiv_pos_site_id
 _symmetry_equiv_pos_as_xyz
  1  'x, y, z'
loop_
 _atom_site_type_symbol
 _atom_site_label
 _atom_site_symmetry_multiplicity
 _atom_site_fract_x
 _atom_site_fract_y
 _atom_site_fract_z
 _atom_site_occupancy
  K  K0  1  0.65121637  0.88986789  0.39337386  1
  K  K1  1  0.15121656  0.11013214  0.39337363  1
  K  K2  1  0.34878357  0.11013209  0.89337434  1
  K  K3  1  0.84878358  0.88986797  0.89337419  1
  I  I4  1  0.36770098  0.61197291  0.58474507  1
  I  I5  1  0.86770103  0.38802678  0.58474507  1
  I  I6  1  0.63229894  0.38802710  0.08474542  1
  I  I7  1  0.13229897  0.61197312  0.08474535  1
