# generated using pymatgen
data_LiBr
_symmetry_space_group_name_H-M   'P 1'
_cell_length_a   5.63504442
_cell_length_b   7.72989699
_cell_length_c   4.50381466
_cell_angle_alpha   89.99991395
_cell_angle_beta   90.00016345
_cell_angle_gamma   90.00004152
_symmetry_Int_Tables_number   1
_chemical_formula_structural   LiBr
_chemical_formula_sum   'Li4 Br4'
_cell_volume   196.17856843
_cell_formula_units_Z   4
loop_
 _symmetry_equiv_pos_site_id
 _symmetry_equiv_pos_as_xyz
  1  'x, y, z'
loop_
 _atom_site_type_symbol
 _atom_site_label
 _atom_site_symmetry_multiplicity
 _atom_site_fract_x
 _atom_site_fract_y
 _atom_site_fract_z
 _atom_site_occupancy
  Li  Li0  1  0.74850333  0.91663874  0.58278836  1
  Li  Li1  1  0.24850275  0.58336155  0.58278629  1
  Li  Li2  1  0.25149461  0.08336376  0.08278822  1
  Li  Li3  1  0.75149410  0.41663680  0.08278949  1
  Br  Br4  1  0.25036608  0.91788292  0.58349110  1
  Br  Br5  1  0.75036583  0.58211671  0.58349095  1
  Br  Br6  1  0.74963651  0.08211692  0.08349658  1
  Br  Br7  1  0.24963678  0.41788260  0.08349594  1
