# generated using pymatgen
data_LiI
_symmetry_space_group_name_H-M   'P 1'
_cell_length_a   4.24630840
_cell_length_b   7.31956318
_cell_length_c   6.97356465
_cell_angle_alpha   90.00000050
_cell_angle_beta   90.17651873
_cell_angle_gamma   89.99998591
_symmetry_Int_Tables_number   1
_chemical_formula_structural   LiI
_chemical_formula_sum   'Li4 I4'
_cell_volume   216.74518956
_cell_formula_units_Z   4
loop_
 _symmetry_equiv_pos_site_id
 _symmetry_equiv_pos_as_xyz
  1  'x, y, z'
loop_
 _atom_site_type_symbol
 _atom_site_label
 _atom_site_symmetry_multiplicity
 _atom_site_fract_x
 _atom_site_fract_y
 _atom_site_fract_z
 _atom_site_occupancy
  Li  Li0  1  0.21259693  0.00206025  0.92983742  1
  Li  Li1  1  0.71259126  0.50205843  0.92984088  1
  Li  Li2  1  0.21259786  -0.00206015  0.42983822  1
  Li  Li3  1  0.71259232  0.49794162  0.42984169  1
  I  I4  1  0.21257527  0.33355685  0.17816876  1
  I  I5  1  0.71257700  0.83355686  0.17816806  1
  I  I6  1  0.21257539  0.66644307  0.67816864  1
  I  I7  1  0.71257710  0.16644307  0.67816796  1
