# generated using pymatgen
data_LiBr
_symmetry_space_group_name_H-M   'P 1'
_cell_length_a   3.95697839
_cell_length_b   3.95649855
_cell_length_c   12.99377241
_cell_angle_alpha   89.99986077
_cell_angle_beta   90.00021732
_cell_angle_gamma   89.99947977
_symmetry_Int_Tables_number   1
_chemical_formula_structural   LiBr
_chemical_formula_sum   'Li4 Br4'
_cell_volume   203.42763268
_cell_formula_units_Z   4
loop_
 _symmetry_equiv_pos_site_id
 _symmetry_equiv_pos_as_xyz
  1  'x, y, z'
loop_
 _atom_site_type_symbol
 _atom_site_label
 _atom_site_symmetry_multiplicity
 _atom_site_fract_x
 _atom_site_fract_y
 _atom_site_fract_z
 _atom_site_occupancy
  Li  Li0  1  0.49588612  0.49709787  0.67178445  1
  Li  Li1  1  0.49712279  0.50408985  0.42177265  1
  Li  Li2  1  0.50411698  0.50290390  0.17178341  1
  Li  Li3  1  0.50287505  0.49590738  0.92177333  1
  Br  Br4  1  0.99755110  0.49413920  0.54672933  1
  Br  Br5  1  0.49413632  0.00244920  0.29672862  1
  Br  Br6  1  0.00244893  0.50586169  0.04672892  1
  Br  Br7  1  0.50586270  0.99755091  0.79673038  1
