# generated using pymatgen
data_LiI
_symmetry_space_group_name_H-M   'P 1'
_cell_length_a   13.50344683
_cell_length_b   13.50344754
_cell_length_c   6.11035846
_cell_angle_alpha   89.99717501
_cell_angle_beta   90.00284272
_cell_angle_gamma   120.02109433
_symmetry_Int_Tables_number   1
_chemical_formula_structural   LiI
_chemical_formula_sum   'Li12 I12'
_cell_volume   964.70441726
_cell_formula_units_Z   12
loop_
 _symmetry_equiv_pos_site_id
 _symmetry_equiv_pos_as_xyz
  1  'x, y, z'
loop_
 _atom_site_type_symbol
 _atom_site_label
 _atom_site_symmetry_multiplicity
 _atom_site_fract_x
 _atom_site_fract_y
 _atom_site_fract_z
 _atom_site_occupancy
  Li  Li0  1  0.53559763  0.65540576  -0.00090514  1
  Li  Li1  1  0.34455715  0.88021228  -0.00059608  1
  Li  Li2  1  0.88017112  0.53551721  0.00069934  1
  Li  Li3  1  0.46440544  0.34460404  0.00080212  1
  Li  Li4  1  0.11979021  0.65543358  0.49932954  1
  Li  Li5  1  0.34460094  0.46440693  0.49915372  1
  Li  Li6  1  0.53552430  0.88017578  0.49940954  1
  Li  Li7  1  0.65543854  0.11979177  0.00060055  1
  Li  Li8  1  0.46447089  0.11983150  0.50067905  1
  Li  Li9  1  0.88021211  0.34455248  0.50052703  1
  Li  Li10  1  0.65540353  0.53560031  0.50087470  1
  Li  Li11  1  0.11982770  0.46446453  -0.00057745  1
  I  I12  1  0.87512207  0.55065742  0.49991448  1
  I  I13  1  0.44926171  0.32440974  0.49993296  1
  I  I14  1  0.32442083  0.87523272  0.50005667  1
  I  I15  1  0.12487343  0.44932638  0.50008980  1
  I  I16  1  0.67560231  0.55074648  -0.00006449  1
  I  I17  1  0.44933221  0.12487834  -0.00007858  1
  I  I18  1  0.87523388  0.32442072  -0.00005295  1
  I  I19  1  0.55074024  0.67560047  0.50005150  1
  I  I20  1  0.12477086  0.67556775  0.00004741  1
  I  I21  1  0.32441088  0.44926642  0.00005517  1
  I  I22  1  0.55066433  0.87512720  0.00009446  1
  I  I23  1  0.67556769  0.12477021  0.49995663  1
