# generated using pymatgen
data_NaI
_symmetry_space_group_name_H-M   'P 1'
_cell_length_a   7.73699080
_cell_length_b   7.82855751
_cell_length_c   4.61172603
_cell_angle_alpha   90.00076828
_cell_angle_beta   90.00076178
_cell_angle_gamma   89.99951821
_symmetry_Int_Tables_number   1
_chemical_formula_structural   NaI
_chemical_formula_sum   'Na4 I4'
_cell_volume   279.32983555
_cell_formula_units_Z   4
loop_
 _symmetry_equiv_pos_site_id
 _symmetry_equiv_pos_as_xyz
  1  'x, y, z'
loop_
 _atom_site_type_symbol
 _atom_site_label
 _atom_site_symmetry_multiplicity
 _atom_site_fract_x
 _atom_site_fract_y
 _atom_site_fract_z
 _atom_site_occupancy
  Na  Na0  1  0.24777773  0.25478363  0.49855309  1
  Na  Na1  1  0.75222243  0.75478208  0.00151766  1
  Na  Na2  1  0.25222109  0.74521897  0.99846590  1
  Na  Na3  1  0.74777965  0.24521799  0.50146145  1
  I  I4  1  0.49799386  0.08394984  -0.00044050  1
  I  I5  1  0.50200626  0.58394884  0.50043485  1
  I  I6  1  0.00200421  0.91605008  0.49955459  1
  I  I7  1  -0.00200523  0.41604857  0.00045296  1
