# generated using pymatgen
data_LiBr
_symmetry_space_group_name_H-M   'P 1'
_cell_length_a   7.25606387
_cell_length_b   4.33376612
_cell_length_c   6.86507680
_cell_angle_alpha   89.99993285
_cell_angle_beta   90.00169359
_cell_angle_gamma   89.99984199
_symmetry_Int_Tables_number   1
_chemical_formula_structural   LiBr
_chemical_formula_sum   'Li4 Br4'
_cell_volume   215.87978020
_cell_formula_units_Z   4
loop_
 _symmetry_equiv_pos_site_id
 _symmetry_equiv_pos_as_xyz
  1  'x, y, z'
loop_
 _atom_site_type_symbol
 _atom_site_label
 _atom_site_symmetry_multiplicity
 _atom_site_fract_x
 _atom_site_fract_y
 _atom_site_fract_z
 _atom_site_occupancy
  Li  Li0  1  0.90293382  -0.00509019  0.40393074  1
  Li  Li1  1  0.09706776  0.49491093  0.09606788  1
  Li  Li2  1  0.59705595  0.00508841  0.90394826  1
  Li  Li3  1  0.40294529  0.50509032  0.59605106  1
  Br  Br4  1  0.42448816  0.50485380  0.97249653  1
  Br  Br5  1  0.57551227  0.00485097  0.52750751  1
  Br  Br6  1  0.07550662  0.49514806  0.47250118  1
  Br  Br7  1  0.92449014  -0.00485230  0.02749684  1
