# generated using pymatgen
data_LiI
_symmetry_space_group_name_H-M   'P 1'
_cell_length_a   11.83031212
_cell_length_b   11.83232928
_cell_length_c   8.57578951
_cell_angle_alpha   89.99868268
_cell_angle_beta   89.99843454
_cell_angle_gamma   90.03812951
_symmetry_Int_Tables_number   1
_chemical_formula_structural   LiI
_chemical_formula_sum   'Li16 I16'
_cell_volume   1200.44002188
_cell_formula_units_Z   16
loop_
 _symmetry_equiv_pos_site_id
 _symmetry_equiv_pos_as_xyz
  1  'x, y, z'
loop_
 _atom_site_type_symbol
 _atom_site_label
 _atom_site_symmetry_multiplicity
 _atom_site_fract_x
 _atom_site_fract_y
 _atom_site_fract_z
 _atom_site_occupancy
  Li  Li0  1  0.86974491  0.49982705  0.41307643  1
  Li  Li1  1  -0.00024486  0.36989713  0.08678433  1
  Li  Li2  1  0.86974888  0.99982815  0.83693664  1
  Li  Li3  1  0.13024981  0.50017156  0.41307432  1
  Li  Li4  1  0.00024368  0.63009077  0.08678090  1
  Li  Li5  1  0.49975895  0.36990937  0.66322448  1
  Li  Li6  1  0.50024596  0.63011538  0.66321496  1
  Li  Li7  1  -0.00024464  0.86991525  0.16318967  1
  Li  Li8  1  0.00023702  0.13009274  0.16319946  1
  Li  Li9  1  0.63025256  0.00017244  -0.08693486  1
  Li  Li10  1  0.50024211  0.13008412  0.58680803  1
  Li  Li11  1  0.36975727  0.99981562  -0.08691115  1
  Li  Li12  1  0.49976207  0.86989535  0.58680335  1
  Li  Li13  1  0.36974841  0.49982850  0.33692358  1
  Li  Li14  1  0.63025136  0.50018617  0.33691082  1
  Li  Li15  1  0.13024680  0.00017034  0.83692488  1
  I  I16  1  0.99951501  0.69886516  0.39594728  1
  I  I17  1  0.80113084  0.49968688  0.10438523  1
  I  I18  1  0.99951126  0.19885812  0.85405871  1
  I  I19  1  0.00049129  0.30115058  0.39596235  1
  I  I20  1  0.19885908  0.50031154  0.10438141  1
  I  I21  1  0.30113417  0.49968978  0.64562718  1
  I  I22  1  0.69886820  0.50031110  0.64560783  1
  I  I23  1  0.80114646  0.99968890  0.14562310  1
  I  I24  1  0.19886249  0.00031308  0.14562250  1
  I  I25  1  0.50048914  0.80114205  0.89593626  1
  I  I26  1  0.69885550  0.00030958  0.60437000  1
  I  I27  1  0.49951476  0.19887231  0.89592454  1
  I  I28  1  0.30114272  0.99968994  0.60438674  1
  I  I29  1  0.49950897  0.69885411  0.35403790  1
  I  I30  1  0.50048621  0.30113493  0.35405495  1
  I  I31  1  0.00048361  0.80112203  0.85406821  1
