# generated using pymatgen
data_LiBr
_symmetry_space_group_name_H-M   'P 1'
_cell_length_a   7.93869475
_cell_length_b   7.93871581
_cell_length_c   12.82257455
_cell_angle_alpha   89.99985478
_cell_angle_beta   90.00004562
_cell_angle_gamma   89.99987486
_symmetry_Int_Tables_number   1
_chemical_formula_structural   LiBr
_chemical_formula_sum   'Li16 Br16'
_cell_volume   808.11764834
_cell_formula_units_Z   16
loop_
 _symmetry_equiv_pos_site_id
 _symmetry_equiv_pos_as_xyz
  1  'x, y, z'
loop_
 _atom_site_type_symbol
 _atom_site_label
 _atom_site_symmetry_multiplicity
 _atom_site_fract_x
 _atom_site_fract_y
 _atom_site_fract_z
 _atom_site_occupancy
  Li  Li0  1  0.24980183  0.75058865  0.25019837  1
  Li  Li1  1  0.75058956  0.75019444  0.74980218  1
  Li  Li2  1  0.75019744  0.25058962  -0.00019901  1
  Li  Li3  1  0.25058943  0.25019724  0.24980045  1
  Li  Li4  1  0.25019649  0.75058935  0.49980100  1
  Li  Li5  1  0.74941039  0.74980207  0.24980196  1
  Li  Li6  1  0.74980187  0.25058914  0.75019745  1
  Li  Li7  1  0.25019629  0.74941067  0.75019890  1
  Li  Li8  1  0.75058873  0.74980486  0.50019723  1
  Li  Li9  1  0.74980596  0.24941099  0.49980247  1
  Li  Li10  1  0.24941466  0.25019985  0.50019956  1
  Li  Li11  1  0.75019945  0.24941190  0.25019898  1
  Li  Li12  1  0.24941270  0.24980032  0.74980083  1
  Li  Li13  1  0.25058729  0.24980199  0.00019921  1
  Li  Li14  1  0.24980354  0.74941087  -0.00019811  1
  Li  Li15  1  0.74941115  0.75019832  0.00019853  1
  Br  Br16  1  0.25007672  0.49997515  0.62476430  1
  Br  Br17  1  0.49997278  0.74992163  0.37523572  1
  Br  Br18  1  0.74992110  -0.00002671  0.62523635  1
  Br  Br19  1  -0.00002590  0.24992325  0.87523555  1
  Br  Br20  1  0.24992103  0.49997431  0.12523566  1
  Br  Br21  1  0.00002558  0.75007929  0.87523697  1
  Br  Br22  1  0.75007721  -0.00002524  0.12476381  1
  Br  Br23  1  0.24992121  0.00002506  0.12476421  1
  Br  Br24  1  0.49997395  0.75007797  0.87476391  1
  Br  Br25  1  0.75007716  0.50002636  0.12523607  1
  Br  Br26  1  0.50002538  0.24992185  0.87476397  1
  Br  Br27  1  0.74992035  0.50002654  0.62476369  1
  Br  Br28  1  0.50002757  0.25007754  0.37523631  1
  Br  Br29  1  -0.00002347  0.25007680  0.37476416  1
  Br  Br30  1  0.25007744  0.00002494  0.62523589  1
  Br  Br31  1  0.00002510  0.74992099  0.37476344  1
