# generated using pymatgen
data_LiBr
_symmetry_space_group_name_H-M   'P 1'
_cell_length_a   8.04127010
_cell_length_b   4.07779899
_cell_length_c   5.47923410
_cell_angle_alpha   90.00005224
_cell_angle_beta   90.00004375
_cell_angle_gamma   90.00034936
_symmetry_Int_Tables_number   1
_chemical_formula_structural   LiBr
_chemical_formula_sum   'Li4 Br4'
_cell_volume   179.66782870
_cell_formula_units_Z   4
loop_
 _symmetry_equiv_pos_site_id
 _symmetry_equiv_pos_as_xyz
  1  'x, y, z'
loop_
 _atom_site_type_symbol
 _atom_site_label
 _atom_site_symmetry_multiplicity
 _atom_site_fract_x
 _atom_site_fract_y
 _atom_site_fract_z
 _atom_site_occupancy
  Li  Li0  1  0.40638056  0.65248843  0.49849307  1
  Li  Li1  1  0.59361630  0.15248458  0.00150899  1
  Li  Li2  1  0.09361898  0.34751146  -0.00150893  1
  Li  Li3  1  0.90638396  0.84751544  0.50150754  1
  Br  Br4  1  0.38773837  0.66206343  0.00001478  1
  Br  Br5  1  0.61226081  0.16206182  0.49998541  1
  Br  Br6  1  0.11226175  0.33793656  0.50001405  1
  Br  Br7  1  0.88773927  0.83793826  -0.00001492  1
