# generated using pymatgen
data_LiI
_symmetry_space_group_name_H-M   'P 1'
_cell_length_a   11.28158297
_cell_length_b   11.28158540
_cell_length_c   8.62801083
_cell_angle_alpha   90.00016521
_cell_angle_beta   90.00014017
_cell_angle_gamma   89.99958624
_symmetry_Int_Tables_number   1
_chemical_formula_structural   LiI
_chemical_formula_sum   'Li16 I16'
_cell_volume   1098.12267358
_cell_formula_units_Z   16
loop_
 _symmetry_equiv_pos_site_id
 _symmetry_equiv_pos_as_xyz
  1  'x, y, z'
loop_
 _atom_site_type_symbol
 _atom_site_label
 _atom_site_symmetry_multiplicity
 _atom_site_fract_x
 _atom_site_fract_y
 _atom_site_fract_z
 _atom_site_occupancy
  Li  Li0  1  0.50042569  0.66378410  0.42342493  1
  Li  Li1  1  0.16378277  0.50042523  0.67342516  1
  Li  Li2  1  0.49957691  0.66378428  0.92342459  1
  Li  Li3  1  0.49957286  0.33621673  0.42342368  1
  Li  Li4  1  0.83621766  0.49957477  0.67342359  1
  Li  Li5  1  0.33621595  0.00042311  0.67342380  1
  Li  Li6  1  0.66378326  0.99957612  0.67342630  1
  Li  Li7  1  0.83621738  0.50042320  0.17342304  1
  Li  Li8  1  0.16378332  0.49957630  0.17342503  1
  Li  Li9  1  0.99957590  0.83621717  0.92342357  1
  Li  Li10  1  0.33621566  0.99957509  0.17342459  1
  Li  Li11  1  0.00042582  0.16378253  0.92342495  1
  Li  Li12  1  0.66378333  0.00042569  0.17342507  1
  Li  Li13  1  0.99957555  0.16378242  0.42342588  1
  Li  Li14  1  0.00042138  0.83621756  0.42342381  1
  Li  Li15  1  0.50042650  0.33621648  0.92342271  1
  I  I16  1  0.68657263  0.49950817  0.42347329  1
  I  I17  1  0.99950849  0.68657137  0.67347340  1
  I  I18  1  0.31342832  0.49951274  0.92347438  1
  I  I19  1  0.31342788  0.50049197  0.42347474  1
  I  I20  1  0.00049183  0.31342862  0.67347453  1
  I  I21  1  0.50048639  0.18657217  0.67347310  1
  I  I22  1  0.49951325  0.81342773  0.67347416  1
  I  I23  1  0.00048701  0.68657134  0.17347381  1
  I  I24  1  0.99951361  0.31342819  0.17347480  1
  I  I25  1  0.81342891  0.00049073  0.92347510  1
  I  I26  1  0.50049072  0.81342759  0.17347445  1
  I  I27  1  0.18657168  0.99950861  0.92347395  1
  I  I28  1  0.49950859  0.18657284  0.17347348  1
  I  I29  1  0.81342721  0.99951357  0.42347512  1
  I  I30  1  0.18657077  0.00048612  0.42347409  1
  I  I31  1  0.68657277  0.50048745  0.92347307  1
