# generated using pymatgen
data_LiBr
_symmetry_space_group_name_H-M   'P 1'
_cell_length_a   9.38826997
_cell_length_b   6.30170060
_cell_length_c   6.77963816
_cell_angle_alpha   89.99921652
_cell_angle_beta   89.99999379
_cell_angle_gamma   89.99995983
_symmetry_Int_Tables_number   1
_chemical_formula_structural   LiBr
_chemical_formula_sum   'Li8 Br8'
_cell_volume   401.09740375
_cell_formula_units_Z   8
loop_
 _symmetry_equiv_pos_site_id
 _symmetry_equiv_pos_as_xyz
  1  'x, y, z'
loop_
 _atom_site_type_symbol
 _atom_site_label
 _atom_site_symmetry_multiplicity
 _atom_site_fract_x
 _atom_site_fract_y
 _atom_site_fract_z
 _atom_site_occupancy
  Li  Li0  1  0.37024986  0.41437156  0.65600150  1
  Li  Li1  1  0.37025164  0.08562909  0.15601124  1
  Li  Li2  1  0.87024988  0.08562761  0.34399718  1
  Li  Li3  1  0.12974806  0.58562903  0.15601222  1
  Li  Li4  1  0.62974846  0.91437138  0.84398812  1
  Li  Li5  1  0.12974997  0.91437168  0.65600300  1
  Li  Li6  1  0.87025181  0.41437135  0.84398792  1
  Li  Li7  1  0.62975015  0.58562815  0.34399815  1
  Br  Br8  1  0.62694585  0.53968704  0.72015062  1
  Br  Br9  1  0.62694627  0.96031308  0.22014973  1
  Br  Br10  1  0.12694640  0.96031298  0.27984999  1
  Br  Br11  1  0.87305401  0.46031277  0.22014948  1
  Br  Br12  1  0.37305388  0.03968705  0.77985009  1
  Br  Br13  1  0.87305363  0.03968712  0.72015037  1
  Br  Br14  1  0.12694592  0.53968712  0.77985101  1
  Br  Br15  1  0.37305421  0.46031298  0.27984936  1
