# generated using pymatgen
data_LiBr
_symmetry_space_group_name_H-M   'P 1'
_cell_length_a   6.73258586
_cell_length_b   7.32225962
_cell_length_c   4.33025965
_cell_angle_alpha   90.00000336
_cell_angle_beta   90.00091341
_cell_angle_gamma   89.99972401
_symmetry_Int_Tables_number   1
_chemical_formula_structural   LiBr
_chemical_formula_sum   'Li4 Br4'
_cell_volume   213.47202128
_cell_formula_units_Z   4
loop_
 _symmetry_equiv_pos_site_id
 _symmetry_equiv_pos_as_xyz
  1  'x, y, z'
loop_
 _atom_site_type_symbol
 _atom_site_label
 _atom_site_symmetry_multiplicity
 _atom_site_fract_x
 _atom_site_fract_y
 _atom_site_fract_z
 _atom_site_occupancy
  Li  Li0  1  0.34090452  0.40603348  0.63596307  1
  Li  Li1  1  0.84090178  0.09396370  0.63596063  1
  Li  Li2  1  0.65909638  0.59396644  0.13597450  1
  Li  Li3  1  0.15909756  -0.09396352  0.13597040  1
  Br  Br4  1  0.77365040  0.92238387  0.13573514  1
  Br  Br5  1  0.27365108  0.57761812  0.13573935  1
  Br  Br6  1  0.22635018  0.07761624  0.63574744  1
  Br  Br7  1  0.72634811  0.42238169  0.63575078  1
