# generated using pymatgen
data_NaI
_symmetry_space_group_name_H-M   'P 1'
_cell_length_a   17.57603025
_cell_length_b   17.57596450
_cell_length_c   4.80097593
_cell_angle_alpha   89.99851939
_cell_angle_beta   89.99506957
_cell_angle_gamma   89.99988434
_symmetry_Int_Tables_number   1
_chemical_formula_structural   NaI
_chemical_formula_sum   'Na16 I16'
_cell_volume   1483.09675499
_cell_formula_units_Z   16
loop_
 _symmetry_equiv_pos_site_id
 _symmetry_equiv_pos_as_xyz
  1  'x, y, z'
loop_
 _atom_site_type_symbol
 _atom_site_label
 _atom_site_symmetry_multiplicity
 _atom_site_fract_x
 _atom_site_fract_y
 _atom_site_fract_z
 _atom_site_occupancy
  Na  Na0  1  0.08678843  0.16752368  0.71342276  1
  Na  Na1  1  0.33247695  0.58679065  0.78667412  1
  Na  Na2  1  0.08678819  0.66752364  0.53659367  1
  Na  Na3  1  0.91321207  0.83247637  0.71340648  1
  Na  Na4  1  0.66752560  0.41321466  0.78649077  1
  Na  Na5  1  0.83247457  0.58678576  0.96350784  1
  Na  Na6  1  0.16752291  0.41320887  0.96332396  1
  Na  Na7  1  0.33247425  0.08678552  0.46350828  1
  Na  Na8  1  0.66752319  0.91320916  0.46332505  1
  Na  Na9  1  0.41321170  0.33247599  0.21340440  1
  Na  Na10  1  0.16752569  0.91321428  0.28649276  1
  Na  Na11  1  0.58678878  0.66752395  0.21342153  1
  Na  Na12  1  0.83247684  0.08679111  0.28667668  1
  Na  Na13  1  0.58678821  0.16752397  0.03659577  1
  Na  Na14  1  0.41321133  0.83247607  0.03657885  1
  Na  Na15  1  0.91321128  0.33247633  0.53657712  1
  I  I16  1  0.66581537  0.08867893  0.53334463  1
  I  I17  1  0.41131468  0.16581987  0.96670854  1
  I  I18  1  0.66583008  0.58868744  0.71664393  1
  I  I19  1  0.33417030  0.91131272  0.53335636  1
  I  I20  1  0.58868539  0.83416929  0.96658624  1
  I  I21  1  0.91131437  0.16583123  0.78341553  1
  I  I22  1  0.08868559  0.83417962  0.78329249  1
  I  I23  1  0.41131481  0.66583038  0.28341264  1
  I  I24  1  0.58868514  0.33418041  0.28329031  1
  I  I25  1  0.83417028  0.41131319  0.03335463  1
  I  I26  1  0.08868517  0.33416909  0.46658531  1
  I  I27  1  0.16581537  0.58867851  0.03334242  1
  I  I28  1  0.91131485  0.66582011  0.46670820  1
  I  I29  1  0.16582946  0.08868692  0.21664542  1
  I  I30  1  0.83418488  0.91132141  0.21665790  1
  I  I31  1  0.33418426  0.41132088  0.71665540  1
