# generated using pymatgen
data_LiBr
_symmetry_space_group_name_H-M   'P 1'
_cell_length_a   6.67959324
_cell_length_b   6.44035970
_cell_length_c   3.86213156
_cell_angle_alpha   89.99963317
_cell_angle_beta   90.00106515
_cell_angle_gamma   90.00012592
_symmetry_Int_Tables_number   1
_chemical_formula_structural   LiBr
_chemical_formula_sum   'Li4 Br4'
_cell_volume   166.14497232
_cell_formula_units_Z   4
loop_
 _symmetry_equiv_pos_site_id
 _symmetry_equiv_pos_as_xyz
  1  'x, y, z'
loop_
 _atom_site_type_symbol
 _atom_site_label
 _atom_site_symmetry_multiplicity
 _atom_site_fract_x
 _atom_site_fract_y
 _atom_site_fract_z
 _atom_site_occupancy
  Li  Li0  1  0.49976224  0.50074622  0.75264428  1
  Li  Li1  1  0.50023732  0.00074697  0.74733590  1
  Li  Li2  1  0.00022068  0.49924883  0.25265474  1
  Li  Li3  1  0.99977824  -0.00075055  0.24736545  1
  Br  Br4  1  0.16621681  0.25024841  0.75032356  1
  Br  Br5  1  0.83378473  0.75024906  0.74968043  1
  Br  Br6  1  0.33378272  0.74975593  0.25030991  1
  Br  Br7  1  0.66621725  0.24975512  0.24968572  1
