# generated using pymatgen
data_LiBr
_symmetry_space_group_name_H-M   'P 1'
_cell_length_a   11.24547720
_cell_length_b   11.22606301
_cell_length_c   9.86541262
_cell_angle_alpha   90.05232283
_cell_angle_beta   90.01988684
_cell_angle_gamma   120.04828648
_symmetry_Int_Tables_number   1
_chemical_formula_structural   LiBr
_chemical_formula_sum   'Li18 Br18'
_cell_volume   1078.05114070
_cell_formula_units_Z   18
loop_
 _symmetry_equiv_pos_site_id
 _symmetry_equiv_pos_as_xyz
  1  'x, y, z'
loop_
 _atom_site_type_symbol
 _atom_site_label
 _atom_site_symmetry_multiplicity
 _atom_site_fract_x
 _atom_site_fract_y
 _atom_site_fract_z
 _atom_site_occupancy
  Li  Li0  1  0.98465286  0.67549461  0.66743522  1
  Li  Li1  1  0.97575813  0.31790945  0.66611127  1
  Li  Li2  1  0.01534416  0.32449804  0.33256294  1
  Li  Li3  1  0.69091833  0.01543342  0.66722238  1
  Li  Li4  1  0.34239012  0.02422357  0.66582216  1
  Li  Li5  1  0.67575383  0.69091365  0.33249361  1
  Li  Li6  1  0.99092481  0.64242789  0.00083913  1
  Li  Li7  1  0.32425905  0.30909339  0.66751003  1
  Li  Li8  1  0.30907316  0.98457047  0.33277896  1
  Li  Li9  1  0.00907354  0.35756646  -0.00084501  1
  Li  Li10  1  0.65759086  0.97576926  0.33417952  1
  Li  Li11  1  0.35758455  0.34874788  0.00055478  1
  Li  Li12  1  0.64242659  0.65125467  -0.00055185  1
  Li  Li13  1  0.02423989  0.68207992  0.33388315  1
  Li  Li14  1  0.65132623  0.00884395  0.00077155  1
  Li  Li15  1  0.34867033  0.99116338  -0.00076973  1
  Li  Li16  1  0.68202638  0.65784636  0.66589802  1
  Li  Li17  1  0.31798653  0.34216357  0.33410434  1
  Br  Br18  1  0.26992499  0.13020195  0.85389220  1
  Br  Br19  1  0.80686197  0.60427550  0.47916492  1
  Br  Br20  1  0.73006323  0.86979731  0.14611000  1
  Br  Br21  1  0.85982054  0.72907024  0.85416908  1
  Br  Br22  1  0.79715597  0.19372983  0.47942851  1
  Br  Br23  1  0.13047863  0.86037986  0.14609540  1
  Br  Br24  1  0.53617569  0.47295755  0.18724157  1
  Br  Br25  1  0.86951783  0.13961402  0.85390403  1
  Br  Br26  1  0.14019328  0.27094448  0.14582971  1
  Br  Br27  1  0.46384037  0.52704294  0.81276065  1
  Br  Br28  1  0.20283849  0.80626890  0.52056826  1
  Br  Br29  1  0.52646267  0.06238050  0.18750748  1
  Br  Br30  1  0.47353045  -0.06237249  0.81249427  1
  Br  Br31  1  0.19313830  0.39571581  0.52083624  1
  Br  Br32  1  -0.06340128  0.46353732  0.18721946  1
  Br  Br33  1  0.06339212  0.53645247  0.81277338  1
  Br  Br34  1  0.39671372  0.20310983  0.47943856  1
  Br  Br35  1  0.60329370  0.79689402  0.52056579  1
