# generated using pymatgen
data_LiBr
_symmetry_space_group_name_H-M   'P 1'
_cell_length_a   13.98369901
_cell_length_b   3.76337489
_cell_length_c   3.77650162
_cell_angle_alpha   90.00027544
_cell_angle_beta   89.99999569
_cell_angle_gamma   90.00015754
_symmetry_Int_Tables_number   1
_chemical_formula_structural   LiBr
_chemical_formula_sum   'Li4 Br4'
_cell_volume   198.74180339
_cell_formula_units_Z   4
loop_
 _symmetry_equiv_pos_site_id
 _symmetry_equiv_pos_as_xyz
  1  'x, y, z'
loop_
 _atom_site_type_symbol
 _atom_site_label
 _atom_site_symmetry_multiplicity
 _atom_site_fract_x
 _atom_site_fract_y
 _atom_site_fract_z
 _atom_site_occupancy
  Li  Li0  1  0.07989354  0.25102612  0.33791539  1
  Li  Li1  1  0.57989129  0.74897443  0.33791166  1
  Li  Li2  1  0.92010732  0.74897298  0.83791409  1
  Li  Li3  1  0.42010798  0.25102845  0.83791593  1
  Br  Br4  1  0.39351259  0.75159582  0.33949983  1
  Br  Br5  1  0.89351336  0.24840128  0.33950045  1
  Br  Br6  1  0.60648655  0.24840513  0.83949999  1
  Br  Br7  1  0.10648736  0.75159578  0.83950007  1
