# generated using pymatgen
data_KI
_symmetry_space_group_name_H-M   'P 1'
_cell_length_a   9.89696734
_cell_length_b   8.65821933
_cell_length_c   8.68228747
_cell_angle_alpha   89.99999936
_cell_angle_beta   89.99985574
_cell_angle_gamma   89.99999996
_symmetry_Int_Tables_number   1
_chemical_formula_structural   KI
_chemical_formula_sum   'K8 I8'
_cell_volume   743.98620246
_cell_formula_units_Z   8
loop_
 _symmetry_equiv_pos_site_id
 _symmetry_equiv_pos_as_xyz
  1  'x, y, z'
loop_
 _atom_site_type_symbol
 _atom_site_label
 _atom_site_symmetry_multiplicity
 _atom_site_fract_x
 _atom_site_fract_y
 _atom_site_fract_z
 _atom_site_occupancy
  K  K0  1  0.12608797  0.74985946  -0.00003898  1
  K  K1  1  0.12608797  0.75014054  0.49996102  1
  K  K2  1  0.62608807  0.75014118  0.00003915  1
  K  K3  1  0.37391197  0.25014116  0.49996089  1
  K  K4  1  0.87391197  0.24985943  0.50003901  1
  K  K5  1  0.37391198  0.24985885  -0.00003911  1
  K  K6  1  0.62608807  0.74985881  0.50003915  1
  K  K7  1  0.87391198  0.25014057  0.00003901  1
  I  I8  1  0.62397554  0.41845303  0.75013111  1
  I  I9  1  0.62397554  0.08154698  0.25013116  1
  I  I10  1  0.12397552  0.08154696  0.24986887  1
  I  I11  1  0.87602438  0.58154699  0.25013115  1
  I  I12  1  0.37602458  -0.08154695  0.74986881  1
  I  I13  1  0.87602435  -0.08154700  0.75013111  1
  I  I14  1  0.12397552  0.41845304  0.74986881  1
  I  I15  1  0.37602458  0.58154696  0.24986884  1
