# generated using pymatgen
data_LiBr
_symmetry_space_group_name_H-M   'P 1'
_cell_length_a   10.26971540
_cell_length_b   10.26978784
_cell_length_c   9.92216005
_cell_angle_alpha   90.00167576
_cell_angle_beta   89.99708486
_cell_angle_gamma   120.00214238
_symmetry_Int_Tables_number   1
_chemical_formula_structural   LiBr
_chemical_formula_sum   'Li18 Br18'
_cell_volume   906.24863133
_cell_formula_units_Z   18
loop_
 _symmetry_equiv_pos_site_id
 _symmetry_equiv_pos_as_xyz
  1  'x, y, z'
loop_
 _atom_site_type_symbol
 _atom_site_label
 _atom_site_symmetry_multiplicity
 _atom_site_fract_x
 _atom_site_fract_y
 _atom_site_fract_z
 _atom_site_occupancy
  Li  Li0  1  0.44838821  0.38478834  0.14279866  1
  Li  Li1  1  0.73007992  0.78175699  0.19051278  1
  Li  Li2  1  0.55161174  0.61521228  0.85720162  1
  Li  Li3  1  0.93640412  0.55160811  0.14279677  1
  Li  Li4  1  0.05168029  0.26993050  0.19049959  1
  Li  Li5  1  0.38480006  0.93641370  0.85718901  1
  Li  Li6  1  0.28177195  0.39688614  0.47615754  1
  Li  Li7  1  0.61519818  0.06358511  0.14281171  1
  Li  Li8  1  0.06359349  0.44839274  0.85720136  1
  Li  Li9  1  0.71822664  0.60311218  0.52384461  1
  Li  Li10  1  0.94832345  0.73007287  0.80949726  1
  Li  Li11  1  0.60309498  0.88487809  0.47613881  1
  Li  Li12  1  0.39690617  0.11512227  0.52386033  1
  Li  Li13  1  0.26992065  0.21824189  0.80948978  1
  Li  Li14  1  0.11511240  0.71820907  0.47614415  1
  Li  Li15  1  0.88488776  0.28178746  0.52385418  1
  Li  Li16  1  0.21825438  0.94832948  0.19050953  1
  Li  Li17  1  0.78174525  0.05167246  0.80949167  1
  Br  Br18  1  0.95362217  0.75800308  0.30935330  1
  Br  Br19  1  0.86230226  0.28699473  0.02398640  1
  Br  Br20  1  0.04637880  0.24199738  0.69064681  1
  Br  Br21  1  0.80439096  0.04637078  0.30934040  1
  Br  Br22  1  0.42468778  0.13769331  0.02397875  1
  Br  Br23  1  0.75802015  0.80438726  0.69065637  1
  Br  Br24  1  0.90863623  0.52894427  0.64266885  1
  Br  Br25  1  0.24198191  0.19561296  0.30934517  1
  Br  Br26  1  0.19561050  0.95362985  0.69065802  1
  Br  Br27  1  0.09136555  0.47105556  0.35733043  1
  Br  Br28  1  0.57530941  0.86230699  -0.02398008  1
  Br  Br29  1  0.47105743  0.37969026  0.64266306  1
  Br  Br30  1  0.52894349  0.62030931  0.35734038  1
  Br  Br31  1  0.13769551  0.71300544  -0.02398752  1
  Br  Br32  1  0.62029839  0.09134498  0.64267312  1
  Br  Br33  1  0.37970240  0.90865430  0.35732466  1
  Br  Br34  1  0.71301273  0.57532832  0.02397767  1
  Br  Br35  1  0.28698469  0.42467153  -0.02397514  1
