# generated using pymatgen
data_LiBr
_symmetry_space_group_name_H-M   'P 1'
_cell_length_a   13.00958716
_cell_length_b   13.00957714
_cell_length_c   7.87380445
_cell_angle_alpha   90.01742179
_cell_angle_beta   89.98258532
_cell_angle_gamma   120.03770543
_symmetry_Int_Tables_number   1
_chemical_formula_structural   LiBr
_chemical_formula_sum   'Li18 Br18'
_cell_volume   1153.65722868
_cell_formula_units_Z   18
loop_
 _symmetry_equiv_pos_site_id
 _symmetry_equiv_pos_as_xyz
  1  'x, y, z'
loop_
 _atom_site_type_symbol
 _atom_site_label
 _atom_site_symmetry_multiplicity
 _atom_site_fract_x
 _atom_site_fract_y
 _atom_site_fract_z
 _atom_site_occupancy
  Li  Li0  1  0.29637533  0.18360998  0.36349141  1
  Li  Li1  1  0.29643335  0.11279338  0.86347435  1
  Li  Li2  1  0.14968061  0.37023261  0.53020136  1
  Li  Li3  1  0.22047888  0.85033888  0.53020989  1
  Li  Li4  1  0.48315134  0.44621218  0.69681025  1
  Li  Li5  1  0.81636608  0.11280772  0.36351683  1
  Li  Li6  1  0.22055010  0.37019787  0.03018983  1
  Li  Li7  1  0.14966202  0.77952196  0.03020990  1
  Li  Li8  1  0.88720644  0.70356566  0.36347472  1
  Li  Li9  1  0.88719252  0.18363405  0.86351641  1
  Li  Li10  1  0.62976631  0.85031851  0.03020128  1
  Li  Li11  1  0.62980238  0.77944999  0.53018978  1
  Li  Li12  1  0.55380985  0.03694216  0.69678637  1
  Li  Li13  1  0.55378812  0.51684886  0.19681029  1
  Li  Li14  1  0.81638935  0.70362376  0.86349158  1
  Li  Li15  1  0.48317544  0.03697330  0.19677321  1
  Li  Li16  1  0.96302666  0.51682456  0.69677334  1
  Li  Li17  1  0.96305794  0.44619029  0.19678682  1
  Br  Br18  1  0.54286679  0.69754492  0.25233123  1
  Br  Br19  1  0.54296283  0.84536832  0.75232336  1
  Br  Br20  1  0.63569189  0.12362774  0.41898784  1
  Br  Br21  1  0.48799104  0.36438176  0.41902335  1
  Br  Br22  1  0.96885443  0.17860393  0.58567166  1
  Br  Br23  1  0.30237681  0.84525684  0.25236954  1
  Br  Br24  1  0.48787311  0.12351701  0.91897969  1
  Br  Br25  1  0.63561778  0.51200896  0.91902328  1
  Br  Br26  1  0.15463150  0.45703748  0.25232355  1
  Br  Br27  1  0.15474420  0.69762381  0.75236933  1
  Br  Br28  1  0.87637240  0.36430835  0.91898806  1
  Br  Br29  1  0.87648290  0.51212624  0.41897998  1
  Br  Br30  1  0.82130421  0.79017760  0.58563406  1
  Br  Br31  1  0.82139654  0.03114588  0.08567210  1
  Br  Br32  1  0.30245526  0.45713309  0.75233027  1
  Br  Br33  1  0.96892057  0.79027670  0.08563839  1
  Br  Br34  1  0.20972271  0.03107925  0.58563797  1
  Br  Br35  1  0.20982228  0.17869641  0.08563371  1
