# generated using pymatgen
data_LiBr
_symmetry_space_group_name_H-M   'P 1'
_cell_length_a   14.53421758
_cell_length_b   14.55676683
_cell_length_c   3.84614322
_cell_angle_alpha   89.99968426
_cell_angle_beta   90.00005756
_cell_angle_gamma   89.99360053
_symmetry_Int_Tables_number   1
_chemical_formula_structural   LiBr
_chemical_formula_sum   'Li16 Br16'
_cell_volume   813.73319447
_cell_formula_units_Z   16
loop_
 _symmetry_equiv_pos_site_id
 _symmetry_equiv_pos_as_xyz
  1  'x, y, z'
loop_
 _atom_site_type_symbol
 _atom_site_label
 _atom_site_symmetry_multiplicity
 _atom_site_fract_x
 _atom_site_fract_y
 _atom_site_fract_z
 _atom_site_occupancy
  Li  Li0  1  0.83170126  0.08082365  0.73604426  1
  Li  Li1  1  0.16829887  0.91917655  0.73604597  1
  Li  Li2  1  0.41839904  0.33062311  -0.01538889  1
  Li  Li3  1  0.66829923  0.91917646  0.23603567  1
  Li  Li4  1  0.91840004  0.33062271  0.48462137  1
  Li  Li5  1  0.08160002  0.16937574  -0.01539303  1
  Li  Li6  1  0.33170117  0.08082439  0.23605606  1
  Li  Li7  1  0.91839948  0.83062370  -0.01538357  1
  Li  Li8  1  0.08159931  0.66937531  0.48460060  1
  Li  Li9  1  0.33170020  0.58082515  0.73604126  1
  Li  Li10  1  0.66830007  0.41917599  0.73604137  1
  Li  Li11  1  0.41839952  0.83062314  0.48462256  1
  Li  Li12  1  0.58160051  0.16937693  0.48460105  1
  Li  Li13  1  0.58159966  0.66937600  -0.01539247  1
  Li  Li14  1  0.83170100  0.58082375  0.23605010  1
  Li  Li15  1  0.16830013  0.41917559  0.23603304  1
  Br  Br16  1  0.58462266  0.83544168  0.73670589  1
  Br  Br17  1  0.41537827  0.16455863  0.73671774  1
  Br  Br18  1  0.66526502  0.08540276  0.98545216  1
  Br  Br19  1  0.91537785  0.16455833  0.23670817  1
  Br  Br20  1  0.16526461  0.08540219  0.48545878  1
  Br  Br21  1  0.83473512  0.41459728  0.98546244  1
  Br  Br22  1  0.08462220  0.83544184  0.23671566  1
  Br  Br23  1  0.16526475  0.58540232  0.98545065  1
  Br  Br24  1  0.83473429  0.91459748  0.48545792  1
  Br  Br25  1  0.08462274  0.33544103  0.73670305  1
  Br  Br26  1  0.91537843  0.66455842  0.73671355  1
  Br  Br27  1  0.66526490  0.58540240  0.48545853  1
  Br  Br28  1  0.33473449  0.41459816  0.48545221  1
  Br  Br29  1  0.33473506  0.91459832  0.98546503  1
  Br  Br30  1  0.58462184  0.33544245  0.23671013  1
  Br  Br31  1  0.41537826  0.66455852  0.23670487  1
