# generated using pymatgen
data_LiI
_symmetry_space_group_name_H-M   'P 1'
_cell_length_a   7.31922079
_cell_length_b   8.02807716
_cell_length_c   4.68296697
_cell_angle_alpha   90.00021080
_cell_angle_beta   89.99970032
_cell_angle_gamma   89.99992823
_symmetry_Int_Tables_number   1
_chemical_formula_structural   LiI
_chemical_formula_sum   'Li4 I4'
_cell_volume   275.16771746
_cell_formula_units_Z   4
loop_
 _symmetry_equiv_pos_site_id
 _symmetry_equiv_pos_as_xyz
  1  'x, y, z'
loop_
 _atom_site_type_symbol
 _atom_site_label
 _atom_site_symmetry_multiplicity
 _atom_site_fract_x
 _atom_site_fract_y
 _atom_site_fract_z
 _atom_site_occupancy
  Li  Li0  1  0.65036087  0.90656334  0.37057822  1
  Li  Li1  1  0.15035975  0.59343611  0.37057814  1
  Li  Li2  1  0.34963871  0.09343713  0.87057767  1
  Li  Li3  1  0.84963975  0.40656260  0.87057808  1
  I  I4  1  0.23337271  0.42223027  0.86971999  1
  I  I5  1  0.73337038  0.07777142  0.86972029  1
  I  I6  1  0.76662869  0.57777019  0.36972326  1
  I  I7  1  0.26662915  0.92222894  0.36972320  1
