# generated using pymatgen
data_LiBr
_symmetry_space_group_name_H-M   'P 1'
_cell_length_a   6.73858365
_cell_length_b   3.90137019
_cell_length_c   6.70618090
_cell_angle_alpha   90.00005357
_cell_angle_beta   70.94246984
_cell_angle_gamma   89.99992559
_symmetry_Int_Tables_number   1
_chemical_formula_structural   LiBr
_chemical_formula_sum   'Li4 Br4'
_cell_volume   166.64056081
_cell_formula_units_Z   4
loop_
 _symmetry_equiv_pos_site_id
 _symmetry_equiv_pos_as_xyz
  1  'x, y, z'
loop_
 _atom_site_type_symbol
 _atom_site_label
 _atom_site_symmetry_multiplicity
 _atom_site_fract_x
 _atom_site_fract_y
 _atom_site_fract_z
 _atom_site_occupancy
  Li  Li0  1  0.02404062  0.25144036  0.85675578  1
  Li  Li1  1  0.52403735  0.75144300  0.85675728  1
  Li  Li2  1  0.02403323  0.74856155  0.35675485  1
  Li  Li3  1  0.52402999  0.24855868  0.35675665  1
  Br  Br4  1  0.27320522  0.74831692  0.60782638  1
  Br  Br5  1  0.77320525  0.24831621  0.60782637  1
  Br  Br6  1  0.27320358  0.25168141  0.10782591  1
  Br  Br7  1  0.77320340  0.75168187  0.10782609  1
