# generated using pymatgen
data_LiBr
_symmetry_space_group_name_H-M   'P 1'
_cell_length_a   3.94072162
_cell_length_b   3.94069556
_cell_length_c   10.66259970
_cell_angle_alpha   89.99962933
_cell_angle_beta   90.00135133
_cell_angle_gamma   89.99984873
_symmetry_Int_Tables_number   1
_chemical_formula_structural   LiBr
_chemical_formula_sum   'Li4 Br4'
_cell_volume   165.58147485
_cell_formula_units_Z   4
loop_
 _symmetry_equiv_pos_site_id
 _symmetry_equiv_pos_as_xyz
  1  'x, y, z'
loop_
 _atom_site_type_symbol
 _atom_site_label
 _atom_site_symmetry_multiplicity
 _atom_site_fract_x
 _atom_site_fract_y
 _atom_site_fract_z
 _atom_site_occupancy
  Li  Li0  1  0.99949023  0.49742328  0.20571746  1
  Li  Li1  1  0.49741909  0.00051973  0.95571989  1
  Li  Li2  1  0.00050231  0.50257944  0.70572331  1
  Li  Li3  1  0.50258128  0.99948197  0.45571613  1
  Br  Br4  1  0.49988807  0.00190820  0.70572807  1
  Br  Br5  1  0.00192473  0.50010439  0.45572474  1
  Br  Br6  1  0.50010350  -0.00190229  0.20572531  1
  Br  Br7  1  -0.00190921  0.49988529  0.95572853  1
