# generated using pymatgen
data_LiI
_symmetry_space_group_name_H-M   'P 1'
_cell_length_a   5.99355565
_cell_length_b   6.02565851
_cell_length_c   6.02745019
_cell_angle_alpha   90.00039619
_cell_angle_beta   89.99950805
_cell_angle_gamma   90.00116568
_symmetry_Int_Tables_number   1
_chemical_formula_structural   LiI
_chemical_formula_sum   'Li4 I4'
_cell_volume   217.68208453
_cell_formula_units_Z   4
loop_
 _symmetry_equiv_pos_site_id
 _symmetry_equiv_pos_as_xyz
  1  'x, y, z'
loop_
 _atom_site_type_symbol
 _atom_site_label
 _atom_site_symmetry_multiplicity
 _atom_site_fract_x
 _atom_site_fract_y
 _atom_site_fract_z
 _atom_site_occupancy
  Li  Li0  1  0.49943819  0.24988744  0.45379681  1
  Li  Li1  1  -0.00056079  0.75011122  0.45380012  1
  Li  Li2  1  0.50055690  0.75009864  0.95378696  1
  Li  Li3  1  0.00055680  0.24990292  0.95378545  1
  I  I4  1  0.00025055  0.24993837  0.45099362  1
  I  I5  1  0.50025550  0.75005899  0.45099330  1
  I  I6  1  -0.00024627  0.75005972  -0.04900478  1
  I  I7  1  0.49974911  0.24994270  -0.04900655  1
