# generated using pymatgen
data_LiBr
_symmetry_space_group_name_H-M   'P 1'
_cell_length_a   14.43631979
_cell_length_b   14.43631969
_cell_length_c   14.43631880
_cell_angle_alpha   89.99997566
_cell_angle_beta   89.99996524
_cell_angle_gamma   90.00000437
_symmetry_Int_Tables_number   1
_chemical_formula_structural   LiBr
_chemical_formula_sum   'Li48 Br48'
_cell_volume   3008.63462252
_cell_formula_units_Z   48
loop_
 _symmetry_equiv_pos_site_id
 _symmetry_equiv_pos_as_xyz
  1  'x, y, z'
loop_
 _atom_site_type_symbol
 _atom_site_label
 _atom_site_symmetry_multiplicity
 _atom_site_fract_x
 _atom_site_fract_y
 _atom_site_fract_z
 _atom_site_occupancy
  Li  Li0  1  0.42954510  0.32741077  -0.00131990  1
  Li  Li1  1  0.50132012  0.92954511  0.32741062  1
  Li  Li2  1  0.49867995  0.57045499  0.32741084  1
  Li  Li3  1  0.50131999  0.07045495  0.17258905  1
  Li  Li4  1  0.49867986  0.42954509  0.17258947  1
  Li  Li5  1  0.32741082  0.50132002  0.92954486  1
  Li  Li6  1  0.67258928  -0.00132006  0.92954535  1
  Li  Li7  1  0.42954502  0.67258924  0.50131997  1
  Li  Li8  1  0.92954511  0.82741080  0.49868005  1
  Li  Li9  1  0.00132012  0.42954516  0.82741063  1
  Li  Li10  1  0.00132009  0.07045494  0.32741062  1
  Li  Li11  1  0.17258920  -0.00132006  0.57045517  1
  Li  Li12  1  0.00132008  0.92954513  0.17258904  1
  Li  Li13  1  -0.00132005  0.42954504  0.32741092  1
  Li  Li14  1  -0.00132009  0.57045484  0.17258936  1
  Li  Li15  1  0.82741065  0.50132008  0.57045485  1
  Li  Li16  1  0.17258936  0.00132000  0.92954478  1
  Li  Li17  1  0.67258933  0.50132014  0.42954495  1
  Li  Li18  1  0.32741075  -0.00132004  0.42954512  1
  Li  Li19  1  0.07045487  0.67258925  0.49867989  1
  Li  Li20  1  0.57045489  0.67258916  0.00131988  1
  Li  Li21  1  0.32741072  0.49867994  0.57045502  1
  Li  Li22  1  0.67258925  0.00132008  0.57045480  1
  Li  Li23  1  0.92954518  0.32741081  0.50132012  1
  Li  Li24  1  0.92954502  0.67258925  -0.00132004  1
  Li  Li25  1  0.07045487  0.82741071  -0.00132004  1
  Li  Li26  1  0.82741080  0.49867991  0.92954517  1
  Li  Li27  1  0.57045484  0.17258932  -0.00132006  1
  Li  Li28  1  0.57045491  0.82741079  0.50132005  1
  Li  Li29  1  -0.00132015  0.07045484  0.82741095  1
  Li  Li30  1  0.00132008  0.57045493  0.67258905  1
  Li  Li31  1  -0.00132012  0.92954507  0.67258937  1
  Li  Li32  1  0.82741083  0.00132011  0.42954488  1
  Li  Li33  1  0.17258933  0.49867998  0.42954520  1
  Li  Li34  1  0.82741065  -0.00132006  0.07045517  1
  Li  Li35  1  0.17258920  0.50132006  0.07045480  1
  Li  Li36  1  0.07045501  0.32741066  0.00131999  1
  Li  Li37  1  0.92954509  0.17258925  0.00131999  1
  Li  Li38  1  0.42954514  0.82741067  0.00132009  1
  Li  Li39  1  0.42954506  0.17258927  0.49868001  1
  Li  Li40  1  0.57045494  0.32741080  0.49868003  1
  Li  Li41  1  0.07045488  0.17258921  0.50131998  1
  Li  Li42  1  0.49867993  0.07045493  0.67258943  1
  Li  Li43  1  0.50132011  0.42954504  0.67258918  1
  Li  Li44  1  0.49868003  0.92954505  0.82741091  1
  Li  Li45  1  0.50132007  0.57045492  0.82741051  1
  Li  Li46  1  0.67258916  0.49867993  0.07045510  1
  Li  Li47  1  0.32741062  0.00132006  0.07045483  1
  Br  Br48  1  0.66156972  0.93879132  0.40319320  1
  Br  Br49  1  0.09680673  0.16156961  0.93879133  1
  Br  Br50  1  0.90319334  0.33843033  0.93879125  1
  Br  Br51  1  0.09680670  0.83843035  0.56120881  1
  Br  Br52  1  0.90319323  0.66156977  0.56120851  1
  Br  Br53  1  0.93879134  0.09680675  0.16156978  1
  Br  Br54  1  0.06120860  0.40319330  0.16156969  1
  Br  Br55  1  0.66156971  0.06120875  0.09680680  1
  Br  Br56  1  0.16156975  0.43879128  0.90319325  1
  Br  Br57  1  0.59680672  0.66156977  0.43879135  1
  Br  Br58  1  0.59680681  0.83843027  0.93879150  1
  Br  Br59  1  0.56120868  0.40319332  0.33843028  1
  Br  Br60  1  0.59680662  0.16156974  0.56120870  1
  Br  Br61  1  0.40319333  0.66156969  0.93879112  1
  Br  Br62  1  0.40319324  0.33843017  0.56120867  1
  Br  Br63  1  0.43879136  0.09680668  0.33843031  1
  Br  Br64  1  0.56120862  0.59680670  0.16156968  1
  Br  Br65  1  0.06120863  0.09680669  0.66156973  1
  Br  Br66  1  0.93879135  0.40319331  0.66156976  1
  Br  Br67  1  0.83843025  0.06120866  0.90319347  1
  Br  Br68  1  0.33843028  0.06120865  0.59680673  1
  Br  Br69  1  0.93879141  0.90319332  0.33843016  1
  Br  Br70  1  0.06120867  0.59680668  0.33843024  1
  Br  Br71  1  0.16156966  0.93879131  0.09680657  1
  Br  Br72  1  0.16156971  0.06120863  0.40319334  1
  Br  Br73  1  0.83843037  0.43879132  0.40319334  1
  Br  Br74  1  0.43879135  0.90319332  0.16156976  1
  Br  Br75  1  0.33843034  0.56120863  0.40319331  1
  Br  Br76  1  0.33843027  0.43879137  0.09680668  1
  Br  Br77  1  0.40319329  0.83843043  0.43879125  1
  Br  Br78  1  0.59680665  0.33843029  0.06120892  1
  Br  Br79  1  0.40319320  0.16156971  0.06120858  1
  Br  Br80  1  0.43879131  0.59680667  0.66156967  1
  Br  Br81  1  0.56120867  0.90319338  0.66156974  1
  Br  Br82  1  0.43879145  0.40319323  0.83843032  1
  Br  Br83  1  0.56120870  0.09680670  0.83843034  1
  Br  Br84  1  0.83843034  0.93879138  0.59680663  1
  Br  Br85  1  0.16156972  0.56120874  0.59680666  1
  Br  Br86  1  0.66156961  0.43879135  0.59680664  1
  Br  Br87  1  0.66156977  0.56120855  0.90319330  1
  Br  Br88  1  0.33843034  0.93879134  0.90319332  1
  Br  Br89  1  0.83843019  0.56120863  0.09680672  1
  Br  Br90  1  0.90319321  0.83843036  0.06120870  1
  Br  Br91  1  0.09680663  0.66156962  0.06120870  1
  Br  Br92  1  0.90319341  0.16156971  0.43879112  1
  Br  Br93  1  0.09680684  0.33843026  0.43879151  1
  Br  Br94  1  0.06120863  0.90319321  0.83843024  1
  Br  Br95  1  0.93879132  0.59680666  0.83843032  1
