# generated using pymatgen
data_I
_symmetry_space_group_name_H-M   'P 1'
_cell_length_a   9.95386738
_cell_length_b   5.80074476
_cell_length_c   8.07659032
_cell_angle_alpha   89.99999955
_cell_angle_beta   90.00000532
_cell_angle_gamma   89.99999208
_symmetry_Int_Tables_number   1
_chemical_formula_structural   I
_chemical_formula_sum   I8
_cell_volume   466.34106584
_cell_formula_units_Z   8
loop_
 _symmetry_equiv_pos_site_id
 _symmetry_equiv_pos_as_xyz
  1  'x, y, z'
loop_
 _atom_site_type_symbol
 _atom_site_label
 _atom_site_symmetry_multiplicity
 _atom_site_fract_x
 _atom_site_fract_y
 _atom_site_fract_z
 _atom_site_occupancy
  I  I0  1  0.77560511  0.13821731  0.49485960  1
  I  I1  1  0.27560305  0.86178273  0.99485987  1
  I  I2  1  0.72439839  0.63821746  0.49485961  1
  I  I3  1  0.22439693  0.86178264  0.49485981  1
  I  I4  1  0.27560369  0.36178251  0.49485986  1
  I  I5  1  0.72439489  0.13821730  0.99485963  1
  I  I6  1  0.22439633  0.36178287  0.99485984  1
  I  I7  1  0.77560160  0.63821718  0.99485961  1
