# generated using pymatgen
data_NaI
_symmetry_space_group_name_H-M   'P 1'
_cell_length_a   5.50707980
_cell_length_b   6.52967206
_cell_length_c   9.40090722
_cell_angle_alpha   89.99901198
_cell_angle_beta   89.99720871
_cell_angle_gamma   90.00610537
_symmetry_Int_Tables_number   1
_chemical_formula_structural   NaI
_chemical_formula_sum   'Na4 I4'
_cell_volume   338.05121674
_cell_formula_units_Z   4
loop_
 _symmetry_equiv_pos_site_id
 _symmetry_equiv_pos_as_xyz
  1  'x, y, z'
loop_
 _atom_site_type_symbol
 _atom_site_label
 _atom_site_symmetry_multiplicity
 _atom_site_fract_x
 _atom_site_fract_y
 _atom_site_fract_z
 _atom_site_occupancy
  Na  Na0  1  0.00279475  0.50160343  -0.08145565  1
  Na  Na1  1  -0.00280453  0.00155695  0.58145311  1
  Na  Na2  1  0.49721040  0.49839972  0.41855439  1
  Na  Na3  1  0.50277488  -0.00153489  0.08144713  1
  I  I4  1  0.50246203  0.49949211  0.08253919  1
  I  I5  1  0.49754033  -0.00059331  0.41749960  1
  I  I6  1  -0.00247744  0.50054211  0.58252297  1
  I  I7  1  0.00249957  0.00053388  0.91743927  1
