# generated using pymatgen
data_LiBr
_symmetry_space_group_name_H-M   'P 1'
_cell_length_a   10.18280484
_cell_length_b   10.18279754
_cell_length_c   8.20068773
_cell_angle_alpha   90.00001061
_cell_angle_beta   90.00000627
_cell_angle_gamma   89.99997504
_symmetry_Int_Tables_number   1
_chemical_formula_structural   LiBr
_chemical_formula_sum   'Li16 Br16'
_cell_volume   850.32471952
_cell_formula_units_Z   16
loop_
 _symmetry_equiv_pos_site_id
 _symmetry_equiv_pos_as_xyz
  1  'x, y, z'
loop_
 _atom_site_type_symbol
 _atom_site_label
 _atom_site_symmetry_multiplicity
 _atom_site_fract_x
 _atom_site_fract_y
 _atom_site_fract_z
 _atom_site_occupancy
  Li  Li0  1  0.00118985  0.66813734  0.23053796  1
  Li  Li1  1  0.16813700  0.00119097  0.48053796  1
  Li  Li2  1  0.99880857  0.66813673  0.73053793  1
  Li  Li3  1  0.99881004  0.33186325  0.23053770  1
  Li  Li4  1  0.83186320  0.99880909  0.48053745  1
  Li  Li5  1  0.33186257  0.50119231  0.48053693  1
  Li  Li6  1  0.66813712  0.49880813  0.48053815  1
  Li  Li7  1  0.83186313  0.00119189  -0.01946272  1
  Li  Li8  1  0.16813681  0.99880842  -0.01946229  1
  Li  Li9  1  0.49880953  0.83186288  0.73053784  1
  Li  Li10  1  0.33186271  0.49880918  -0.01946278  1
  Li  Li11  1  0.50119074  0.16813666  0.73053818  1
  Li  Li12  1  0.66813755  0.50118991  -0.01946155  1
  Li  Li13  1  0.49880898  0.16813687  0.23053850  1
  Li  Li14  1  0.50119094  0.83186309  0.23053674  1
  Li  Li15  1  0.00119139  0.33186320  0.73053721  1
  Br  Br16  1  0.68805107  0.00136945  0.23039687  1
  Br  Br17  1  0.50137015  0.68805118  0.48039677  1
  Br  Br18  1  0.31194908  0.00136899  0.73039760  1
  Br  Br19  1  0.31194879  -0.00136944  0.23039728  1
  Br  Br20  1  0.49862941  0.31194921  0.48039789  1
  Br  Br21  1  -0.00136943  0.18805115  0.48039701  1
  Br  Br22  1  0.00136961  0.81194903  0.48039773  1
  Br  Br23  1  0.49863104  0.68805028  0.98039699  1
  Br  Br24  1  0.50136930  0.31194883  0.98039789  1
  Br  Br25  1  0.81194914  0.49862991  0.73039774  1
  Br  Br26  1  -0.00137028  0.81194905  0.98039731  1
  Br  Br27  1  0.18805073  0.50136995  0.73039676  1
  Br  Br28  1  0.00137010  0.18805137  0.98039701  1
  Br  Br29  1  0.81194935  0.50136888  0.23039814  1
  Br  Br30  1  0.18805066  0.49863165  0.23039674  1
  Br  Br31  1  0.68805116  -0.00136941  0.73039707  1
