# generated using pymatgen
data_LiI
_symmetry_space_group_name_H-M   'P 1'
_cell_length_a   4.47531131
_cell_length_b   4.47535773
_cell_length_c   10.32129845
_cell_angle_alpha   90.00007682
_cell_angle_beta   89.99971008
_cell_angle_gamma   120.00033442
_symmetry_Int_Tables_number   1
_chemical_formula_structural   LiI
_chemical_formula_sum   'Li3 I3'
_cell_volume   179.02534161
_cell_formula_units_Z   3
loop_
 _symmetry_equiv_pos_site_id
 _symmetry_equiv_pos_as_xyz
  1  'x, y, z'
loop_
 _atom_site_type_symbol
 _atom_site_label
 _atom_site_symmetry_multiplicity
 _atom_site_fract_x
 _atom_site_fract_y
 _atom_site_fract_z
 _atom_site_occupancy
  Li  Li0  1  0.13675870  0.80485173  0.61146796  1
  Li  Li1  1  0.19515049  0.33190447  0.94480241  1
  Li  Li2  1  0.66809251  0.86324653  0.27813505  1
  I  I3  1  0.66539332  0.86171455  0.77788603  1
  I  I4  1  0.13828283  0.80367865  0.11122056  1
  I  I5  1  0.19632215  0.33460408  0.44455348  1
