# generated using pymatgen
data_LiBr
_symmetry_space_group_name_H-M   'P 1'
_cell_length_a   4.16299227
_cell_length_b   4.16371085
_cell_length_c   10.21227888
_cell_angle_alpha   90.00250184
_cell_angle_beta   89.99431652
_cell_angle_gamma   120.01222111
_symmetry_Int_Tables_number   1
_chemical_formula_structural   LiBr
_chemical_formula_sum   'Li3 Br3'
_cell_volume   153.28016763
_cell_formula_units_Z   3
loop_
 _symmetry_equiv_pos_site_id
 _symmetry_equiv_pos_as_xyz
  1  'x, y, z'
loop_
 _atom_site_type_symbol
 _atom_site_label
 _atom_site_symmetry_multiplicity
 _atom_site_fract_x
 _atom_site_fract_y
 _atom_site_fract_z
 _atom_site_occupancy
  Li  Li0  1  0.66463913  0.66692239  0.76007442  1
  Li  Li1  1  0.33322343  -0.00234462  0.42695846  1
  Li  Li2  1  0.00227184  0.33541711  0.09336352  1
  Br  Br3  1  -0.00206097  0.33313240  0.84372478  1
  Br  Br4  1  0.66648985  0.66453125  0.51020446  1
  Br  Br5  1  0.33543672  0.00234148  0.17699234  1
