# generated using pymatgen
data_NaI
_symmetry_space_group_name_H-M   'P 1'
_cell_length_a   12.12467766
_cell_length_b   12.12034963
_cell_length_c   11.71355559
_cell_angle_alpha   89.95788296
_cell_angle_beta   90.02524588
_cell_angle_gamma   120.01021244
_symmetry_Int_Tables_number   1
_chemical_formula_structural   NaI
_chemical_formula_sum   'Na18 I18'
_cell_volume   1490.59583590
_cell_formula_units_Z   18
loop_
 _symmetry_equiv_pos_site_id
 _symmetry_equiv_pos_as_xyz
  1  'x, y, z'
loop_
 _atom_site_type_symbol
 _atom_site_label
 _atom_site_symmetry_multiplicity
 _atom_site_fract_x
 _atom_site_fract_y
 _atom_site_fract_z
 _atom_site_occupancy
  Na  Na0  1  0.93814348  0.39742343  0.15259761  1
  Na  Na1  1  0.20734713  0.27142707  0.18076708  1
  Na  Na2  1  0.06185653  0.60257651  0.84740240  1
  Na  Na3  1  0.45931953  0.06190631  0.15256642  1
  Na  Na4  1  0.06406975  0.79260955  0.18076418  1
  Na  Na5  1  0.39740316  0.45927625  0.84743082  1
  Na  Na6  1  0.26926358  0.87405701  0.48590255  1
  Na  Na7  1  0.60259685  0.54072377  0.15256918  1
  Na  Na8  1  0.54068041  0.93809363  0.84743356  1
  Na  Na9  1  0.73073646  0.12594295  0.51409748  1
  Na  Na10  1  0.93593020  0.20739046  0.81923580  1
  Na  Na11  1  0.12598622  0.39523965  0.48589965  1
  Na  Na12  1  0.87401391  0.60476051  0.51410033  1
  Na  Na13  1  0.79265280  0.72857286  0.81923295  1
  Na  Na14  1  0.60481013  0.73075679  0.48593096  1
  Na  Na15  1  0.39518984  0.26924317  0.51406898  1
  Na  Na16  1  0.72852322  0.93590990  0.18073571  1
  Na  Na17  1  0.27147682  0.06409020  0.81926433  1
  I  I18  1  0.08786414  0.61113947  0.35276397  1
  I  I19  1  0.14349439  0.42132852  0.98052008  1
  I  I20  1  0.91213594  0.38886057  0.64723606  1
  I  I21  1  0.52317226  0.91200478  0.35281327  1
  I  I22  1  0.27779790  0.85652964  0.98048083  1
  I  I23  1  0.61113126  0.52319630  0.64714749  1
  I  I24  1  0.05553544  0.81013704  0.68618581  1
  I  I25  1  0.38886875  0.47680370  0.35285244  1
  I  I26  1  0.47682774  0.08799524  0.64718672  1
  I  I27  1  0.94446460  0.18986299  0.31381427  1
  I  I28  1  0.72220205  0.14347034  0.01951916  1
  I  I29  1  0.18983896  0.24533819  0.68614660  1
  I  I30  1  0.81016106  0.75466187  0.31385339  1
  I  I31  1  0.85650558  0.57867139  0.01947992  1
  I  I32  1  0.75453075  0.94447284  0.68609729  1
  I  I33  1  0.24546918  0.05552711  0.31390271  1
  I  I34  1  0.57880259  0.72219386  0.98056935  1
  I  I35  1  0.42119738  0.27780613  0.01943064  1
