# generated using pymatgen
data_LiBr
_symmetry_space_group_name_H-M   'P 1'
_cell_length_a   7.64977951
_cell_length_b   3.89950652
_cell_length_c   5.55092589
_cell_angle_alpha   89.99999887
_cell_angle_beta   89.99994832
_cell_angle_gamma   89.99998287
_symmetry_Int_Tables_number   1
_chemical_formula_structural   LiBr
_chemical_formula_sum   'Li4 Br4'
_cell_volume   165.58614575
_cell_formula_units_Z   4
loop_
 _symmetry_equiv_pos_site_id
 _symmetry_equiv_pos_as_xyz
  1  'x, y, z'
loop_
 _atom_site_type_symbol
 _atom_site_label
 _atom_site_symmetry_multiplicity
 _atom_site_fract_x
 _atom_site_fract_y
 _atom_site_fract_z
 _atom_site_occupancy
  Li  Li0  1  0.37308264  0.25099730  -0.00027202  1
  Li  Li1  1  0.62691764  0.75099946  0.50027097  1
  Li  Li2  1  0.12691419  0.74900040  0.49972116  1
  Li  Li3  1  0.87308626  0.24899991  0.00028066  1
  Br  Br4  1  0.62398494  0.74927563  -0.00007275  1
  Br  Br5  1  0.37601466  0.24927503  0.50007277  1
  Br  Br6  1  0.87601564  0.25072724  0.49992729  1
  Br  Br7  1  0.12398403  0.75072503  0.00007193  1
