# generated using pymatgen
data_KBr
_symmetry_space_group_name_H-M   'P 1'
_cell_length_a   8.06742392
_cell_length_b   4.06943135
_cell_length_c   8.07540557
_cell_angle_alpha   89.99469413
_cell_angle_beta   89.99035933
_cell_angle_gamma   90.00214535
_symmetry_Int_Tables_number   1
_chemical_formula_structural   KBr
_chemical_formula_sum   'K4 Br4'
_cell_volume   265.11416939
_cell_formula_units_Z   4
loop_
 _symmetry_equiv_pos_site_id
 _symmetry_equiv_pos_as_xyz
  1  'x, y, z'
loop_
 _atom_site_type_symbol
 _atom_site_label
 _atom_site_symmetry_multiplicity
 _atom_site_fract_x
 _atom_site_fract_y
 _atom_site_fract_z
 _atom_site_occupancy
  K  K0  1  0.00035215  -0.00172873  0.74845488  1
  K  K1  1  0.50031722  0.00173329  0.74843958  1
  K  K2  1  0.99968869  0.00172639  0.24859921  1
  K  K3  1  0.49965074  -0.00172727  0.24861325  1
  Br  Br4  1  0.24949921  0.50009501  0.49759299  1
  Br  Br5  1  0.74946419  0.49990535  0.49758603  1
  Br  Br6  1  0.75052928  0.49994256  -0.00222551  1
  Br  Br7  1  0.25049851  0.50005340  -0.00221148  1
