# generated using pymatgen
data_LiBr
_symmetry_space_group_name_H-M   'P 1'
_cell_length_a   10.14213330
_cell_length_b   10.14212699
_cell_length_c   8.27500342
_cell_angle_alpha   90.00004485
_cell_angle_beta   90.00004278
_cell_angle_gamma   90.00002751
_symmetry_Int_Tables_number   1
_chemical_formula_structural   LiBr
_chemical_formula_sum   'Li16 Br16'
_cell_volume   851.19005416
_cell_formula_units_Z   16
loop_
 _symmetry_equiv_pos_site_id
 _symmetry_equiv_pos_as_xyz
  1  'x, y, z'
loop_
 _atom_site_type_symbol
 _atom_site_label
 _atom_site_symmetry_multiplicity
 _atom_site_fract_x
 _atom_site_fract_y
 _atom_site_fract_z
 _atom_site_occupancy
  Li  Li0  1  0.50019131  0.16846723  0.66113519  1
  Li  Li1  1  0.66846727  0.50018979  0.91113448  1
  Li  Li2  1  0.49980799  0.16846643  0.16113447  1
  Li  Li3  1  0.49980864  0.83153268  0.66113446  1
  Li  Li4  1  0.33153251  0.49981016  0.91113375  1
  Li  Li5  1  0.83153401  0.00019270  0.91113307  1
  Li  Li6  1  0.16846618  -0.00019251  0.91113407  1
  Li  Li7  1  0.33153383  0.50019186  0.41113367  1
  Li  Li8  1  0.66846616  0.49980831  0.41113484  1
  Li  Li9  1  -0.00019099  0.33153297  0.16113418  1
  Li  Li10  1  0.83153327  -0.00019185  0.41113402  1
  Li  Li11  1  0.00019086  0.66846687  0.16113491  1
  Li  Li12  1  0.16846673  0.00019177  0.41113462  1
  Li  Li13  1  -0.00019201  0.66846599  0.66113413  1
  Li  Li14  1  0.00019219  0.33153408  0.66113306  1
  Li  Li15  1  0.50019227  0.83153365  0.16113335  1
  Br  Br16  1  0.00012552  0.81098071  0.41097269  1
  Br  Br17  1  0.31098041  0.00012508  0.66097304  1
  Br  Br18  1  -0.00012566  0.81098016  0.91097340  1
  Br  Br19  1  -0.00012558  0.18901914  0.41097298  1
  Br  Br20  1  0.68901947  -0.00012518  0.66097338  1
  Br  Br21  1  0.18902187  0.50012537  0.66097396  1
  Br  Br22  1  0.81097818  0.49987465  0.66097379  1
  Br  Br23  1  0.68902033  0.00012559  0.16097249  1
  Br  Br24  1  0.31097989  -0.00012547  0.16097220  1
  Br  Br25  1  0.49987540  0.68902141  0.91097336  1
  Br  Br26  1  0.18902113  0.49987507  0.16097226  1
  Br  Br27  1  0.50012441  0.31097838  0.91097307  1
  Br  Br28  1  0.81097856  0.50012483  0.16097201  1
  Br  Br29  1  0.49987475  0.31097864  0.41097334  1
  Br  Br30  1  0.50012530  0.68902153  0.41097349  1
  Br  Br31  1  0.00012578  0.18901996  0.91097362  1
