# generated using pymatgen
data_LiBr
_symmetry_space_group_name_H-M   'P 1'
_cell_length_a   7.42248688
_cell_length_b   7.42247611
_cell_length_c   7.12479997
_cell_angle_alpha   90.00301084
_cell_angle_beta   89.99464132
_cell_angle_gamma   90.00007175
_symmetry_Int_Tables_number   1
_chemical_formula_structural   LiBr
_chemical_formula_sum   'Li8 Br8'
_cell_volume   392.52825223
_cell_formula_units_Z   8
loop_
 _symmetry_equiv_pos_site_id
 _symmetry_equiv_pos_as_xyz
  1  'x, y, z'
loop_
 _atom_site_type_symbol
 _atom_site_label
 _atom_site_symmetry_multiplicity
 _atom_site_fract_x
 _atom_site_fract_y
 _atom_site_fract_z
 _atom_site_occupancy
  Li  Li0  1  0.35046275  0.15083952  0.78166944  1
  Li  Li1  1  0.65083929  0.85046247  0.28168560  1
  Li  Li2  1  0.64953669  0.84916224  0.78167829  1
  Li  Li3  1  0.15084995  0.64952694  0.78166502  1
  Li  Li4  1  0.84914802  0.35047666  0.78169440  1
  Li  Li5  1  0.14952964  0.65084622  0.28166768  1
  Li  Li6  1  0.34915919  0.14953658  0.28166141  1
  Li  Li7  1  0.85047408  0.34915110  0.28169241  1
  Br  Br8  1  0.66704639  0.16675885  0.53240325  1
  Br  Br9  1  0.66675561  0.16704290  0.03240273  1
  Br  Br10  1  0.33296730  0.83323329  0.53236131  1
  Br  Br11  1  0.16677365  0.33295913  0.53238647  1
  Br  Br12  1  0.83323946  0.66703342  0.53236246  1
  Br  Br13  1  0.83295584  0.66676997  0.03236019  1
  Br  Br14  1  0.33323004  0.83296376  0.03236238  1
  Br  Br15  1  0.16703210  0.33323695  0.03238712  1
