# generated using pymatgen
data_LiBr
_symmetry_space_group_name_H-M   'P 1'
_cell_length_a   7.77243950
_cell_length_b   7.77242166
_cell_length_c   13.03979780
_cell_angle_alpha   89.99994400
_cell_angle_beta   89.99990503
_cell_angle_gamma   89.99938022
_symmetry_Int_Tables_number   1
_chemical_formula_structural   LiBr
_chemical_formula_sum   'Li16 Br16'
_cell_volume   787.74301389
_cell_formula_units_Z   16
loop_
 _symmetry_equiv_pos_site_id
 _symmetry_equiv_pos_as_xyz
  1  'x, y, z'
loop_
 _atom_site_type_symbol
 _atom_site_label
 _atom_site_symmetry_multiplicity
 _atom_site_fract_x
 _atom_site_fract_y
 _atom_site_fract_z
 _atom_site_occupancy
  Li  Li0  1  0.80919192  0.18963981  0.73379529  1
  Li  Li1  1  0.68964937  0.80919852  0.98379308  1
  Li  Li2  1  0.19081985  0.18965154  0.23379531  1
  Li  Li3  1  0.19080529  0.81035472  0.73379422  1
  Li  Li4  1  0.31034645  0.19080457  0.98379333  1
  Li  Li5  1  0.81035458  0.30918959  0.98379584  1
  Li  Li6  1  0.18964428  0.69081200  0.98379455  1
  Li  Li7  1  0.31034886  0.80919115  0.48379542  1
  Li  Li8  1  0.68965293  0.19080811  0.48379439  1
  Li  Li9  1  0.69081583  0.31035727  0.23379446  1
  Li  Li10  1  0.81034728  0.69080284  0.48379460  1
  Li  Li11  1  0.30918633  0.68964500  0.23379469  1
  Li  Li12  1  0.18965012  0.30919432  0.48379551  1
  Li  Li13  1  0.69080223  0.68964790  0.73379322  1
  Li  Li14  1  0.30919670  0.31035089  0.73379462  1
  Li  Li15  1  0.80918585  0.81034872  0.23379551  1
  Br  Br16  1  0.24938030  0.44189820  0.10855810  1
  Br  Br17  1  0.94190426  0.24937957  0.35856087  1
  Br  Br18  1  0.75062130  0.44189369  0.60856231  1
  Br  Br19  1  0.75062077  0.55810461  0.10855814  1
  Br  Br20  1  0.05809822  0.75062056  0.35856276  1
  Br  Br21  1  0.55809802  0.74937532  0.35856098  1
  Br  Br22  1  0.44190388  0.25062700  0.35856193  1
  Br  Br23  1  0.05810266  0.24938047  0.85855773  1
  Br  Br24  1  0.94189413  0.75062219  0.85855711  1
  Br  Br25  1  0.25062149  0.05810337  0.60855967  1
  Br  Br26  1  0.55810372  0.25061696  0.85856308  1
  Br  Br27  1  0.74937817  0.94189473  0.60855813  1
  Br  Br28  1  0.44189432  0.74938206  0.85856173  1
  Br  Br29  1  0.25062135  0.94189813  0.10856329  1
  Br  Br30  1  0.74937877  0.05810280  0.10856370  1
  Br  Br31  1  0.24938079  0.55810342  0.60856235  1
