# generated using pymatgen
data_LiBr
_symmetry_space_group_name_H-M   'P 1'
_cell_length_a   4.29513710
_cell_length_b   7.33645482
_cell_length_c   6.38864475
_cell_angle_alpha   89.99997137
_cell_angle_beta   89.37724398
_cell_angle_gamma   90.00001234
_symmetry_Int_Tables_number   1
_chemical_formula_structural   LiBr
_chemical_formula_sum   'Li4 Br4'
_cell_volume   201.30119988
_cell_formula_units_Z   4
loop_
 _symmetry_equiv_pos_site_id
 _symmetry_equiv_pos_as_xyz
  1  'x, y, z'
loop_
 _atom_site_type_symbol
 _atom_site_label
 _atom_site_symmetry_multiplicity
 _atom_site_fract_x
 _atom_site_fract_y
 _atom_site_fract_z
 _atom_site_occupancy
  Li  Li0  1  0.72321904  0.16841289  0.34137002  1
  Li  Li1  1  0.22322071  0.66841324  0.34137155  1
  Li  Li2  1  0.72321873  0.83158700  0.84137090  1
  Li  Li3  1  0.22321927  0.33158697  0.84137199  1
  Br  Br4  1  0.72167582  0.16740970  0.94428430  1
  Br  Br5  1  0.22167541  0.66741000  0.94428501  1
  Br  Br6  1  0.72167737  0.83259019  0.44428457  1
  Br  Br7  1  0.22167541  0.33259001  0.44428494  1
