# generated using pymatgen
data_KI
_symmetry_space_group_name_H-M   'P 1'
_cell_length_a   7.17320268
_cell_length_b   5.09432695
_cell_length_c   17.51567117
_cell_angle_alpha   90.00021529
_cell_angle_beta   144.61089812
_cell_angle_gamma   89.99916726
_symmetry_Int_Tables_number   1
_chemical_formula_structural   KI
_chemical_formula_sum   'K4 I4'
_cell_volume   370.68059474
_cell_formula_units_Z   4
loop_
 _symmetry_equiv_pos_site_id
 _symmetry_equiv_pos_as_xyz
  1  'x, y, z'
loop_
 _atom_site_type_symbol
 _atom_site_label
 _atom_site_symmetry_multiplicity
 _atom_site_fract_x
 _atom_site_fract_y
 _atom_site_fract_z
 _atom_site_occupancy
  K  K0  1  0.49444371  0.74991557  0.87230947  1
  K  K1  1  0.50555697  0.24991593  0.62769079  1
  K  K2  1  0.50555629  0.25008443  0.12769053  1
  K  K3  1  0.49444302  0.75008407  0.37230921  1
  I  I4  1  0.00465508  0.74969446  0.37730615  1
  I  I5  1  -0.00465524  0.24969506  0.12269369  1
  I  I6  1  -0.00465508  0.25030554  0.62269385  1
  I  I7  1  0.00465524  0.75030494  0.87730631  1
