# generated using pymatgen
data_LiBr
_symmetry_space_group_name_H-M   'P 1'
_cell_length_a   4.20230890
_cell_length_b   7.25473106
_cell_length_c   6.71012927
_cell_angle_alpha   89.99999519
_cell_angle_beta   90.10992840
_cell_angle_gamma   89.99997358
_symmetry_Int_Tables_number   1
_chemical_formula_structural   LiBr
_chemical_formula_sum   'Li4 Br4'
_cell_volume   204.56879056
_cell_formula_units_Z   4
loop_
 _symmetry_equiv_pos_site_id
 _symmetry_equiv_pos_as_xyz
  1  'x, y, z'
loop_
 _atom_site_type_symbol
 _atom_site_label
 _atom_site_symmetry_multiplicity
 _atom_site_fract_x
 _atom_site_fract_y
 _atom_site_fract_z
 _atom_site_occupancy
  Li  Li0  1  0.81479795  0.83591816  0.58074826  1
  Li  Li1  1  0.31479356  0.33591387  0.58074437  1
  Li  Li2  1  0.81479673  0.16408175  0.08074726  1
  Li  Li3  1  0.31479242  0.66408607  0.08074324  1
  Br  Br4  1  0.31499467  0.33061576  0.19989897  1
  Br  Br5  1  0.81499502  0.83061515  0.19990043  1
  Br  Br6  1  0.31499594  0.66938436  0.69989870  1
  Br  Br7  1  0.81499626  0.16938487  0.69990040  1
