# generated using pymatgen
data_LiBr
_symmetry_space_group_name_H-M   'P 1'
_cell_length_a   7.79354976
_cell_length_b   7.79354229
_cell_length_c   11.00012934
_cell_angle_alpha   89.99998659
_cell_angle_beta   89.99999728
_cell_angle_gamma   90.00012720
_symmetry_Int_Tables_number   1
_chemical_formula_structural   LiBr
_chemical_formula_sum   'Li16 Br16'
_cell_volume   668.14081186
_cell_formula_units_Z   16
loop_
 _symmetry_equiv_pos_site_id
 _symmetry_equiv_pos_as_xyz
  1  'x, y, z'
loop_
 _atom_site_type_symbol
 _atom_site_label
 _atom_site_symmetry_multiplicity
 _atom_site_fract_x
 _atom_site_fract_y
 _atom_site_fract_z
 _atom_site_occupancy
  Li  Li0  1  0.49964192  0.74911872  0.92510569  1
  Li  Li1  1  0.24911818  0.49964112  0.17510650  1
  Li  Li2  1  0.50035746  0.74911470  0.42510727  1
  Li  Li3  1  0.50035701  0.25087955  0.92510731  1
  Li  Li4  1  0.75088227  0.50035842  0.17510972  1
  Li  Li5  1  0.25088416  -0.00035704  0.17510679  1
  Li  Li6  1  0.74911454  0.00035663  0.17510563  1
  Li  Li7  1  0.75088062  0.49964320  0.67510664  1
  Li  Li8  1  0.24911924  0.50035751  0.67510489  1
  Li  Li9  1  0.00035682  0.75088109  0.42510760  1
  Li  Li10  1  0.25088616  0.00035740  0.67510837  1
  Li  Li11  1  -0.00035876  0.24911820  0.42510575  1
  Li  Li12  1  0.74911519  -0.00035865  0.67510593  1
  Li  Li13  1  0.00035710  0.24911493  0.92510536  1
  Li  Li14  1  -0.00035677  0.75088373  0.92510754  1
  Li  Li15  1  0.49964430  0.25088425  0.42510811  1
  Br  Br16  1  0.50058019  0.24992876  0.67579151  1
  Br  Br17  1  0.74992729  0.50058112  0.92579103  1
  Br  Br18  1  0.49941866  0.24992891  0.17579116  1
  Br  Br19  1  0.49942020  0.75007193  0.67579048  1
  Br  Br20  1  0.25007312  0.49941976  0.92578979  1
  Br  Br21  1  0.75007195  0.00058176  0.92578956  1
  Br  Br22  1  0.24992779  -0.00058131  0.92578974  1
  Br  Br23  1  0.25007135  0.50058241  0.42579001  1
  Br  Br24  1  0.74992870  0.49941880  0.42579050  1
  Br  Br25  1  -0.00058115  0.25007141  0.17578873  1
  Br  Br26  1  0.75007003  -0.00057913  0.42578965  1
  Br  Br27  1  0.00058083  0.74992899  0.17578977  1
  Br  Br28  1  0.24993052  0.00058030  0.42579014  1
  Br  Br29  1  -0.00058121  0.74992842  0.67578989  1
  Br  Br30  1  0.00058126  0.25007233  0.67578876  1
  Br  Br31  1  0.50058100  0.75007177  0.17579058  1
