# generated using pymatgen
data_LiBr
_symmetry_space_group_name_H-M   'P 1'
_cell_length_a   6.93126005
_cell_length_b   8.39972177
_cell_length_c   7.29258274
_cell_angle_alpha   90.00000737
_cell_angle_beta   90.00001527
_cell_angle_gamma   90.00002399
_symmetry_Int_Tables_number   1
_chemical_formula_structural   LiBr
_chemical_formula_sum   'Li8 Br8'
_cell_volume   424.57895078
_cell_formula_units_Z   8
loop_
 _symmetry_equiv_pos_site_id
 _symmetry_equiv_pos_as_xyz
  1  'x, y, z'
loop_
 _atom_site_type_symbol
 _atom_site_label
 _atom_site_symmetry_multiplicity
 _atom_site_fract_x
 _atom_site_fract_y
 _atom_site_fract_z
 _atom_site_occupancy
  Li  Li0  1  0.16312424  0.86973639  0.91356540  1
  Li  Li1  1  0.16312226  0.63026232  0.41356718  1
  Li  Li2  1  0.66311934  0.63026584  0.08643744  1
  Li  Li3  1  0.33687906  0.13026282  0.41356567  1
  Li  Li4  1  0.83687940  0.36973670  0.58643298  1
  Li  Li5  1  0.33688026  0.36973378  0.91356335  1
  Li  Li6  1  0.66311986  0.86973768  0.58643512  1
  Li  Li7  1  0.83687606  0.13026431  0.08643390  1
  Br  Br8  1  0.70822931  0.36853531  -0.08873322  1
  Br  Br9  1  0.70822900  0.13146877  0.41126817  1
  Br  Br10  1  0.20822750  0.13146748  0.08873259  1
  Br  Br11  1  0.79177099  0.63146996  0.41127048  1
  Br  Br12  1  0.29177021  0.86853139  0.58873085  1
  Br  Br13  1  0.79177273  0.86853225  -0.08873240  1
  Br  Br14  1  0.20822984  0.36853040  0.58873023  1
  Br  Br15  1  0.29176994  0.63146460  0.08873225  1
