# generated using pymatgen
data_LiI
_symmetry_space_group_name_H-M   'P 1'
_cell_length_a   10.01593598
_cell_length_b   8.03728176
_cell_length_c   4.06527303
_cell_angle_alpha   89.99992984
_cell_angle_beta   114.04336197
_cell_angle_gamma   90.00239640
_symmetry_Int_Tables_number   1
_chemical_formula_structural   LiI
_chemical_formula_sum   'Li4 I4'
_cell_volume   298.86436066
_cell_formula_units_Z   4
loop_
 _symmetry_equiv_pos_site_id
 _symmetry_equiv_pos_as_xyz
  1  'x, y, z'
loop_
 _atom_site_type_symbol
 _atom_site_label
 _atom_site_symmetry_multiplicity
 _atom_site_fract_x
 _atom_site_fract_y
 _atom_site_fract_z
 _atom_site_occupancy
  Li  Li0  1  0.24982427  0.87690693  0.49853041  1
  Li  Li1  1  0.74982429  0.37690622  0.49853044  1
  Li  Li2  1  0.75017543  0.87690479  0.50146480  1
  Li  Li3  1  0.25017546  0.37690543  0.50146505  1
  I  I4  1  0.75016522  0.62707790  -0.00240021  1
  I  I5  1  0.25016507  0.12707778  -0.00239886  1
  I  I6  1  0.24983518  0.62707821  0.00240452  1
  I  I7  1  0.74983509  0.12707830  0.00240385  1
