# generated using pymatgen
data_LiBr
_symmetry_space_group_name_H-M   'P 1'
_cell_length_a   6.60738342
_cell_length_b   6.60755125
_cell_length_c   3.95412005
_cell_angle_alpha   89.99938075
_cell_angle_beta   90.00164302
_cell_angle_gamma   120.00618818
_symmetry_Int_Tables_number   1
_chemical_formula_structural   LiBr
_chemical_formula_sum   'Li3 Br3'
_cell_volume   149.49389152
_cell_formula_units_Z   3
loop_
 _symmetry_equiv_pos_site_id
 _symmetry_equiv_pos_as_xyz
  1  'x, y, z'
loop_
 _atom_site_type_symbol
 _atom_site_label
 _atom_site_symmetry_multiplicity
 _atom_site_fract_x
 _atom_site_fract_y
 _atom_site_fract_z
 _atom_site_occupancy
  Li  Li0  1  0.27493405  0.94128920  0.15544160  1
  Li  Li1  1  0.05871085  0.33368745  0.48865431  1
  Li  Li2  1  0.66637108  0.72507447  0.82194854  1
  Br  Br3  1  0.30928363  0.33324171  0.98944723  1
  Br  Br4  1  0.66674139  -0.02398414  0.32270986  1
  Br  Br5  1  0.02395900  0.69069131  0.65615228  1
