# generated using pymatgen
data_LiBr
_symmetry_space_group_name_H-M   'P 1'
_cell_length_a   7.88737823
_cell_length_b   7.88509291
_cell_length_c   8.70666313
_cell_angle_alpha   90.00002305
_cell_angle_beta   89.99999436
_cell_angle_gamma   120.01069219
_symmetry_Int_Tables_number   1
_chemical_formula_structural   LiBr
_chemical_formula_sum   'Li6 Br6'
_cell_volume   468.89440863
_cell_formula_units_Z   6
loop_
 _symmetry_equiv_pos_site_id
 _symmetry_equiv_pos_as_xyz
  1  'x, y, z'
loop_
 _atom_site_type_symbol
 _atom_site_label
 _atom_site_symmetry_multiplicity
 _atom_site_fract_x
 _atom_site_fract_y
 _atom_site_fract_z
 _atom_site_occupancy
  Li  Li0  1  0.84697496  0.29800255  0.79569470  1
  Li  Li1  1  0.54892762  0.84700639  0.12918144  1
  Li  Li2  1  0.45107334  0.15299390  0.12918114  1
  Li  Li3  1  0.29805107  0.45078860  0.46274198  1
  Li  Li4  1  0.70194895  0.54921204  0.46274432  1
  Li  Li5  1  0.15302355  0.70199640  0.79569525  1
  Br  Br6  1  0.77373008  0.19149915  0.06165632  1
  Br  Br7  1  0.58203652  0.77370191  0.39516175  1
  Br  Br8  1  0.41796505  0.22629900  0.39516168  1
  Br  Br9  1  0.19136582  0.41757122  0.72851843  1
  Br  Br10  1  0.80863215  0.58242820  0.72852130  1
  Br  Br11  1  0.22627090  0.80850065  0.06165669  1
