# generated using pymatgen
data_LiBr
_symmetry_space_group_name_H-M   'P 1'
_cell_length_a   7.27439426
_cell_length_b   7.27503670
_cell_length_c   6.67667292
_cell_angle_alpha   89.99994736
_cell_angle_beta   90.00004941
_cell_angle_gamma   120.00034980
_symmetry_Int_Tables_number   1
_chemical_formula_structural   LiBr
_chemical_formula_sum   'Li6 Br6'
_cell_volume   305.99985884
_cell_formula_units_Z   6
loop_
 _symmetry_equiv_pos_site_id
 _symmetry_equiv_pos_as_xyz
  1  'x, y, z'
loop_
 _atom_site_type_symbol
 _atom_site_label
 _atom_site_symmetry_multiplicity
 _atom_site_fract_x
 _atom_site_fract_y
 _atom_site_fract_z
 _atom_site_occupancy
  Li  Li0  1  0.00138552  0.33388704  0.81234758  1
  Li  Li1  1  0.66763149  0.00151687  0.31229286  1
  Li  Li2  1  0.33236814  -0.00151679  0.81229219  1
  Li  Li3  1  0.33399999  0.33240487  0.31234825  1
  Li  Li4  1  0.66600020  0.66759401  0.81234943  1
  Li  Li5  1  -0.00138416  0.66611368  0.31234757  1
  Br  Br6  1  0.00094274  0.33371185  0.43038412  1
  Br  Br7  1  0.66704147  0.00088022  0.93041817  1
  Br  Br8  1  0.33295791  -0.00087987  0.43041850  1
  Br  Br9  1  0.33363379  0.33277262  0.93037801  1
  Br  Br10  1  0.66636572  0.66722695  0.43037767  1
  Br  Br11  1  -0.00094281  0.66628855  0.93038449  1
