# generated using pymatgen
data_LiBr
_symmetry_space_group_name_H-M   'P 1'
_cell_length_a   6.45469494
_cell_length_b   6.68494192
_cell_length_c   3.86464223
_cell_angle_alpha   90.00008636
_cell_angle_beta   90.00015544
_cell_angle_gamma   90.00016953
_symmetry_Int_Tables_number   1
_chemical_formula_structural   LiBr
_chemical_formula_sum   'Li4 Br4'
_cell_volume   166.75645560
_cell_formula_units_Z   4
loop_
 _symmetry_equiv_pos_site_id
 _symmetry_equiv_pos_as_xyz
  1  'x, y, z'
loop_
 _atom_site_type_symbol
 _atom_site_label
 _atom_site_symmetry_multiplicity
 _atom_site_fract_x
 _atom_site_fract_y
 _atom_site_fract_z
 _atom_site_occupancy
  Li  Li0  1  0.49937479  0.24906193  0.63351186  1
  Li  Li1  1  -0.00062620  0.25093516  0.63348953  1
  Li  Li2  1  0.50062497  0.75093784  0.13351851  1
  Li  Li3  1  0.00062486  0.74906035  0.13350684  1
  Br  Br4  1  0.24978297  0.58359867  0.63528837  1
  Br  Br5  1  0.74978476  -0.08359618  0.63528611  1
  Br  Br6  1  0.75021580  0.41640367  0.13528370  1
  Br  Br7  1  0.25021805  0.08359855  0.13528708  1
