# generated using pymatgen
data_LiI
_symmetry_space_group_name_H-M   'P 1'
_cell_length_a   9.13106307
_cell_length_b   8.78975689
_cell_length_c   7.39712927
_cell_angle_alpha   90.00006138
_cell_angle_beta   90.00011750
_cell_angle_gamma   89.99998547
_symmetry_Int_Tables_number   1
_chemical_formula_structural   LiI
_chemical_formula_sum   'Li8 I8'
_cell_volume   593.69229657
_cell_formula_units_Z   8
loop_
 _symmetry_equiv_pos_site_id
 _symmetry_equiv_pos_as_xyz
  1  'x, y, z'
loop_
 _atom_site_type_symbol
 _atom_site_label
 _atom_site_symmetry_multiplicity
 _atom_site_fract_x
 _atom_site_fract_y
 _atom_site_fract_z
 _atom_site_occupancy
  Li  Li0  1  0.63755493  0.13618849  -0.02264223  1
  Li  Li1  1  0.13755800  0.36381705  -0.02264190  1
  Li  Li2  1  0.36244077  0.13618305  0.47735793  1
  Li  Li3  1  0.36244585  0.86381227  -0.02263931  1
  Li  Li4  1  0.63755989  0.86381720  0.47735946  1
  Li  Li5  1  0.86244225  0.63618298  -0.02264231  1
  Li  Li6  1  0.86243933  0.36381977  0.47735954  1
  Li  Li7  1  0.13756117  0.63617988  0.47735815  1
  I  I8  1  0.34664244  0.83525435  0.35183970  1
  I  I9  1  0.84664213  0.66474481  0.35183780  1
  I  I10  1  0.65336268  0.83525944  0.85183913  1
  I  I11  1  0.65335739  0.16474577  0.35183859  1
  I  I12  1  0.34663651  0.16474035  0.85183860  1
  I  I13  1  0.15335706  0.33525410  0.35183759  1
  I  I14  1  0.15336094  0.66474194  0.85183862  1
  I  I15  1  0.84663866  0.33525854  0.85183840  1
