# generated using pymatgen
data_LiI
_symmetry_space_group_name_H-M   'P 1'
_cell_length_a   7.19473112
_cell_length_b   7.19331946
_cell_length_c   13.79884819
_cell_angle_alpha   89.99990304
_cell_angle_beta   89.99981786
_cell_angle_gamma   120.16057157
_symmetry_Int_Tables_number   1
_chemical_formula_structural   LiI
_chemical_formula_sum   'Li6 I6'
_cell_volume   617.46508943
_cell_formula_units_Z   6
loop_
 _symmetry_equiv_pos_site_id
 _symmetry_equiv_pos_as_xyz
  1  'x, y, z'
loop_
 _atom_site_type_symbol
 _atom_site_label
 _atom_site_symmetry_multiplicity
 _atom_site_fract_x
 _atom_site_fract_y
 _atom_site_fract_z
 _atom_site_occupancy
  Li  Li0  1  0.42597557  0.57263227  0.12700651  1
  Li  Li1  1  0.85247914  0.42627678  0.29353663  1
  Li  Li2  1  0.14752083  0.57372138  0.79353579  1
  Li  Li3  1  0.57352904  0.14728638  0.96017911  1
  Li  Li4  1  0.42647082  0.85271536  0.46017977  1
  Li  Li5  1  0.57402528  0.42737007  0.62700572  1
  I  I6  1  0.63582163  0.28117084  0.45932428  1
  I  I7  1  0.35543517  0.63599473  0.62580985  1
  I  I8  1  0.64456152  0.36400327  0.12580907  1
  I  I9  1  0.28081195  0.64443180  0.29246919  1
  I  I10  1  0.71918823  0.35556591  0.79246990  1
  I  I11  1  0.36418082  0.71883121  0.95932427  1
