# generated using pymatgen
data_LiBr
_symmetry_space_group_name_H-M   'P 1'
_cell_length_a   3.96547656
_cell_length_b   3.96194919
_cell_length_c   12.88282905
_cell_angle_alpha   90.00007818
_cell_angle_beta   89.99993886
_cell_angle_gamma   90.02369629
_symmetry_Int_Tables_number   1
_chemical_formula_structural   LiBr
_chemical_formula_sum   'Li4 Br4'
_cell_volume   202.40232426
_cell_formula_units_Z   4
loop_
 _symmetry_equiv_pos_site_id
 _symmetry_equiv_pos_as_xyz
  1  'x, y, z'
loop_
 _atom_site_type_symbol
 _atom_site_label
 _atom_site_symmetry_multiplicity
 _atom_site_fract_x
 _atom_site_fract_y
 _atom_site_fract_z
 _atom_site_occupancy
  Li  Li0  1  0.50803627  0.49221019  0.07878574  1
  Li  Li1  1  0.49213846  0.49191865  0.82889099  1
  Li  Li2  1  0.49196417  0.50779202  0.57878548  1
  Li  Li3  1  0.50786066  0.50807958  0.32889093  1
  Br  Br4  1  0.00769051  0.50061276  0.20398553  1
  Br  Br5  1  0.50050897  0.99226105  0.95393924  1
  Br  Br6  1  0.99230968  0.49938655  0.70398528  1
  Br  Br7  1  0.49949129  0.00773920  0.45393900  1
