# generated using pymatgen
data_NaI
_symmetry_space_group_name_H-M   'P 1'
_cell_length_a   15.61592245
_cell_length_b   15.61484253
_cell_length_c   6.12627198
_cell_angle_alpha   90.00723367
_cell_angle_beta   90.00485033
_cell_angle_gamma   89.99489915
_symmetry_Int_Tables_number   1
_chemical_formula_structural   NaI
_chemical_formula_sum   'Na16 I16'
_cell_volume   1493.83117812
_cell_formula_units_Z   16
loop_
 _symmetry_equiv_pos_site_id
 _symmetry_equiv_pos_as_xyz
  1  'x, y, z'
loop_
 _atom_site_type_symbol
 _atom_site_label
 _atom_site_symmetry_multiplicity
 _atom_site_fract_x
 _atom_site_fract_y
 _atom_site_fract_z
 _atom_site_occupancy
  Na  Na0  1  0.58210330  0.40294332  0.25088944  1
  Na  Na1  1  0.09703758  0.08210293  0.24907091  1
  Na  Na2  1  0.58210353  0.90296598  -0.00099161  1
  Na  Na3  1  0.41789641  0.59703165  0.25099191  1
  Na  Na4  1  0.90297083  0.91788632  0.24900540  1
  Na  Na5  1  0.59703085  0.08211338  0.50099310  1
  Na  Na6  1  0.40296450  0.91789723  0.50092764  1
  Na  Na7  1  0.09702770  0.58211319  0.00099391  1
  Na  Na8  1  0.90296204  0.41789632  0.00092870  1
  Na  Na9  1  0.91789607  0.09703452  0.75099005  1
  Na  Na10  1  0.40297049  0.41788738  0.74900770  1
  Na  Na11  1  0.08210286  0.90294660  0.75088753  1
  Na  Na12  1  0.59703611  0.58210342  0.74907279  1
  Na  Na13  1  0.08210397  0.40296810  0.49900943  1
  Na  Na14  1  0.91789709  0.59705564  0.49911218  1
  Na  Na15  1  0.41789665  0.09705439  -0.00088909  1
  I  I16  1  0.38022702  0.39812862  0.24897626  1
  I  I17  1  0.10187151  0.88020649  0.25092362  1
  I  I18  1  0.38022223  0.89814655  0.00093417  1
  I  I19  1  0.61977749  0.60185289  0.24906619  1
  I  I20  1  0.89813404  0.11977900  0.25098717  1
  I  I21  1  0.60186655  0.88022079  0.49901135  1
  I  I22  1  0.39813028  0.11979373  0.49907488  1
  I  I23  1  0.10186643  0.38022307  -0.00098798  1
  I  I24  1  0.89812786  0.61979494  -0.00092383  1
  I  I25  1  0.11977831  0.10185320  0.74906456  1
  I  I26  1  0.39813252  0.61977728  0.75098936  1
  I  I27  1  0.88022867  0.89813076  0.74897404  1
  I  I28  1  0.60187060  0.38020464  0.75092541  1
  I  I29  1  0.88022212  0.39814697  0.50093511  1
  I  I30  1  0.11977096  0.60187126  0.50102532  1
  I  I31  1  0.61977343  0.10186945  0.00102441  1
