# generated using pymatgen
data_KI
_symmetry_space_group_name_H-M   'P 1'
_cell_length_a   6.57329222
_cell_length_b   6.58324207
_cell_length_c   9.10622541
_cell_angle_alpha   89.99986002
_cell_angle_beta   110.82309751
_cell_angle_gamma   90.00010272
_symmetry_Int_Tables_number   1
_chemical_formula_structural   KI
_chemical_formula_sum   'K4 I4'
_cell_volume   368.31995375
_cell_formula_units_Z   4
loop_
 _symmetry_equiv_pos_site_id
 _symmetry_equiv_pos_as_xyz
  1  'x, y, z'
loop_
 _atom_site_type_symbol
 _atom_site_label
 _atom_site_symmetry_multiplicity
 _atom_site_fract_x
 _atom_site_fract_y
 _atom_site_fract_z
 _atom_site_occupancy
  K  K0  1  0.57431163  0.12153059  0.82063760  1
  K  K1  1  0.07431180  0.62153049  0.82063738  1
  K  K2  1  0.57431182  0.87846947  0.32063748  1
  K  K3  1  0.07431170  0.37846939  0.32063760  1
  I  I4  1  0.15850079  0.12130829  -0.00581916  1
  I  I5  1  0.65850088  0.62130839  -0.00581919  1
  I  I6  1  0.15850091  0.87869164  0.49418077  1
  I  I7  1  0.65850086  0.37869173  0.49418080  1
