# generated using pymatgen
data_LiBr
_symmetry_space_group_name_H-M   'P 1'
_cell_length_a   17.04405513
_cell_length_b   9.21722679
_cell_length_c   6.71100605
_cell_angle_alpha   90.00000008
_cell_angle_beta   90.00000324
_cell_angle_gamma   90.00012406
_symmetry_Int_Tables_number   1
_chemical_formula_structural   LiBr
_chemical_formula_sum   'Li16 Br16'
_cell_volume   1054.29181224
_cell_formula_units_Z   16
loop_
 _symmetry_equiv_pos_site_id
 _symmetry_equiv_pos_as_xyz
  1  'x, y, z'
loop_
 _atom_site_type_symbol
 _atom_site_label
 _atom_site_symmetry_multiplicity
 _atom_site_fract_x
 _atom_site_fract_y
 _atom_site_fract_z
 _atom_site_occupancy
  Li  Li0  1  0.12833839  0.86038607  0.13126089  1
  Li  Li1  1  0.37166265  0.13961498  0.63124907  1
  Li  Li2  1  0.87166729  0.86038556  0.13125065  1
  Li  Li3  1  0.87166102  0.63961434  0.63125030  1
  Li  Li4  1  0.37166030  0.36038521  0.13124994  1
  Li  Li5  1  0.87166252  0.36038556  0.36873956  1
  Li  Li6  1  0.62833207  0.36038625  0.13126088  1
  Li  Li7  1  0.62833228  0.63961382  0.86874966  1
  Li  Li8  1  0.12833217  0.63961381  0.63126097  1
  Li  Li9  1  0.37166047  0.63961474  0.86873926  1
  Li  Li10  1  0.12833375  0.36038620  0.36874940  1
  Li  Li11  1  0.12833967  0.13961394  0.86874947  1
  Li  Li12  1  0.37166345  0.86038502  0.36874012  1
  Li  Li13  1  0.62833411  0.13961373  0.63126215  1
  Li  Li14  1  0.87166864  0.13961438  0.86873919  1
  Li  Li15  1  0.62833496  0.86038632  0.36874849  1
  Br  Br16  1  0.37374114  0.61701318  0.23267327  1
  Br  Br17  1  0.12625909  0.38298556  0.73268325  1
  Br  Br18  1  0.62625866  0.61701411  0.23268348  1
  Br  Br19  1  0.62625960  0.88298537  0.73268272  1
  Br  Br20  1  0.12626128  0.11701419  0.23268322  1
  Br  Br21  1  0.62625960  0.11701450  0.26732711  1
  Br  Br22  1  0.87374410  0.11701368  0.23267378  1
  Br  Br23  1  0.87374409  0.88298610  0.76731679  1
  Br  Br24  1  0.37374233  0.88298718  0.73267380  1
  Br  Br25  1  0.12626124  0.88298601  0.76732634  1
  Br  Br26  1  0.37374226  0.11701303  0.26731625  1
  Br  Br27  1  0.37374128  0.38298661  0.76731672  1
  Br  Br28  1  0.12625911  0.61701426  0.26732636  1
  Br  Br29  1  0.87374205  0.38298648  0.73267347  1
  Br  Br30  1  0.62625850  0.38298616  0.76732625  1
  Br  Br31  1  0.87374192  0.61701365  0.26731718  1
