# generated using pymatgen
data_LiI
_symmetry_space_group_name_H-M   'P 1'
_cell_length_a   13.02529794
_cell_length_b   13.02524339
_cell_length_c   7.99705201
_cell_angle_alpha   89.99440738
_cell_angle_beta   90.00559151
_cell_angle_gamma   120.05036945
_symmetry_Int_Tables_number   1
_chemical_formula_structural   LiI
_chemical_formula_sum   'Li18 I18'
_cell_volume   1174.39288130
_cell_formula_units_Z   18
loop_
 _symmetry_equiv_pos_site_id
 _symmetry_equiv_pos_as_xyz
  1  'x, y, z'
loop_
 _atom_site_type_symbol
 _atom_site_label
 _atom_site_symmetry_multiplicity
 _atom_site_fract_x
 _atom_site_fract_y
 _atom_site_fract_z
 _atom_site_occupancy
  Li  Li0  1  0.83367417  0.79145181  0.39122525  1
  Li  Li1  1  0.83377657  0.04177265  0.89215914  1
  Li  Li2  1  0.54183438  0.83315598  0.55728469  1
  Li  Li3  1  0.29124841  0.45925713  0.55659463  1
  Li  Li4  1  0.87407806  0.37591266  0.72382472  1
  Li  Li5  1  0.20739194  0.04228241  0.39061676  1
  Li  Li6  1  0.29176381  0.83317838  0.05830039  1
  Li  Li7  1  0.54073899  0.70875032  0.05659066  1
  Li  Li8  1  -0.04177651  0.16622086  0.39215552  1
  Li  Li9  1  -0.04228410  0.79260772  0.89061645  1
  Li  Li10  1  0.16684710  0.45816570  0.05727882  1
  Li  Li11  1  0.16682804  0.70823764  0.55829223  1
  Li  Li12  1  0.62456352  0.49925867  0.72536939  1
  Li  Li13  1  0.62408650  0.12592395  0.22382095  1
  Li  Li14  1  0.20855209  0.16632837  0.89122567  1
  Li  Li15  1  0.87518693  0.49928708  0.22438626  1
  Li  Li16  1  0.50071526  0.12481622  0.72438097  1
  Li  Li17  1  0.50074685  0.37544190  0.22536227  1
  I  I18  1  0.04225026  0.20792917  0.05936940  1
  I  I19  1  0.04231589  0.83380979  0.55807956  1
  I  I20  1  0.12554899  0.62450992  0.22556520  1
  I  I21  1  0.50015821  0.87560716  0.22513364  1
  I  I22  1  0.45764776  0.16662857  0.39248799  1
  I  I23  1  0.79093312  0.83311632  0.05897233  1
  I  I24  1  0.49947443  0.62438800  0.72416137  1
  I  I25  1  0.12439169  0.49984005  0.72513047  1
  I  I26  1  0.16618748  -0.04231609  0.05808025  1
  I  I27  1  0.16687973  0.20906157  0.55897446  1
  I  I28  1  0.37548863  0.87445217  0.72556762  1
  I  I29  1  0.37561092  0.50052388  0.22416303  1
  I  I30  1  0.83271537  0.29087594  0.39161395  1
  I  I31  1  0.83337332  0.54235250  0.89249240  1
  I  I32  1  0.79206788  -0.04225270  0.55936969  1
  I  I33  1  0.45883219  0.29097304  0.89291019  1
  I  I34  1  0.70902982  0.54117097  0.39291171  1
  I  I35  1  0.70912228  0.16728030  0.89161123  1
