# generated using pymatgen
data_NaI
_symmetry_space_group_name_H-M   'P 1'
_cell_length_a   9.21973506
_cell_length_b   4.62012168
_cell_length_c   6.52090290
_cell_angle_alpha   89.99945291
_cell_angle_beta   90.00026563
_cell_angle_gamma   90.00054632
_symmetry_Int_Tables_number   1
_chemical_formula_structural   NaI
_chemical_formula_sum   'Na4 I4'
_cell_volume   277.76632211
_cell_formula_units_Z   4
loop_
 _symmetry_equiv_pos_site_id
 _symmetry_equiv_pos_as_xyz
  1  'x, y, z'
loop_
 _atom_site_type_symbol
 _atom_site_label
 _atom_site_symmetry_multiplicity
 _atom_site_fract_x
 _atom_site_fract_y
 _atom_site_fract_z
 _atom_site_occupancy
  Na  Na0  1  0.87459629  0.25207878  0.50012958  1
  Na  Na1  1  0.12540474  0.75208529  -0.00013164  1
  Na  Na2  1  0.62540420  0.74792381  0.00013764  1
  Na  Na3  1  0.37459497  0.24791356  0.49986438  1
  I  I4  1  0.87511961  0.24943154  -0.00023285  1
  I  I5  1  0.12488108  0.74943920  0.50023043  1
  I  I6  1  0.62488186  0.75056750  0.49976870  1
  I  I7  1  0.37511725  0.25056030  0.00023376  1
