# generated using pymatgen
data_NaI
_symmetry_space_group_name_H-M   'P 1'
_cell_length_a   9.20855244
_cell_length_b   7.98254113
_cell_length_c   4.61541612
_cell_angle_alpha   54.92856979
_cell_angle_beta   89.99419653
_cell_angle_gamma   90.00317879
_symmetry_Int_Tables_number   1
_chemical_formula_structural   NaI
_chemical_formula_sum   'Na4 I4'
_cell_volume   277.66957018
_cell_formula_units_Z   4
loop_
 _symmetry_equiv_pos_site_id
 _symmetry_equiv_pos_as_xyz
  1  'x, y, z'
loop_
 _atom_site_type_symbol
 _atom_site_label
 _atom_site_symmetry_multiplicity
 _atom_site_fract_x
 _atom_site_fract_y
 _atom_site_fract_z
 _atom_site_occupancy
  Na  Na0  1  0.37397160  0.25056974  -0.00010340  1
  Na  Na1  1  0.12564405  0.75029446  0.00066445  1
  Na  Na2  1  0.62582232  0.74966176  -0.00147764  1
  Na  Na3  1  0.87396516  0.24937751  0.00067708  1
  I  I4  1  0.37554323  0.75030907  0.50001347  1
  I  I5  1  0.12471362  0.25044582  0.50018250  1
  I  I6  1  0.62478640  0.24958103  0.50062844  1
  I  I7  1  0.87555361  0.74976061  0.49941510  1
