# generated using pymatgen
data_KI
_symmetry_space_group_name_H-M   'P 1'
_cell_length_a   15.52524601
_cell_length_b   15.52734334
_cell_length_c   5.24526036
_cell_angle_alpha   89.98204369
_cell_angle_beta   90.03292502
_cell_angle_gamma   120.00789975
_symmetry_Int_Tables_number   1
_chemical_formula_structural   KI
_chemical_formula_sum   'K9 I9'
_cell_volume   1094.96107270
_cell_formula_units_Z   9
loop_
 _symmetry_equiv_pos_site_id
 _symmetry_equiv_pos_as_xyz
  1  'x, y, z'
loop_
 _atom_site_type_symbol
 _atom_site_label
 _atom_site_symmetry_multiplicity
 _atom_site_fract_x
 _atom_site_fract_y
 _atom_site_fract_z
 _atom_site_occupancy
  K  K0  1  0.53981046  0.45941139  0.93349695  1
  K  K1  1  0.87390034  0.74711378  0.59997726  1
  K  K2  1  0.87314625  0.12607349  0.60018566  1
  K  K3  1  0.20722413  0.41375351  0.26679615  1
  K  K4  1  0.20646168  0.79274856  0.26700047  1
  K  K5  1  0.58625238  0.79355924  0.26675611  1
  K  K6  1  0.54056241  0.08044047  0.93329909  1
  K  K7  1  0.25289303  0.12687467  0.59994035  1
  K  K8  1  0.91956534  0.46021023  0.93326202  1
  I  I9  1  0.75504168  0.87718593  0.76685850  1
  I  I10  1  0.45613818  0.54446139  0.43311640  1
  I  I11  1  0.08835439  0.54383763  0.43336429  1
  I  I12  1  0.78945687  0.21111293  0.09977830  1
  I  I13  1  0.42168831  0.21052003  0.10001650  1
  I  I14  1  0.78891604  0.57830610  0.09996554  1
  I  I15  1  0.12278996  0.87779942  0.76661661  1
  I  I16  1  0.45556854  0.91163939  0.43331429  1
  I  I17  1  0.12222999  0.24495184  0.76680931  1
