# generated using pymatgen
data_LiBr
_symmetry_space_group_name_H-M   'P 1'
_cell_length_a   11.50789539
_cell_length_b   11.50785791
_cell_length_c   7.93393468
_cell_angle_alpha   90.01435197
_cell_angle_beta   89.98634915
_cell_angle_gamma   120.01084916
_symmetry_Int_Tables_number   1
_chemical_formula_structural   LiBr
_chemical_formula_sum   'Li18 Br18'
_cell_volume   909.83395872
_cell_formula_units_Z   18
loop_
 _symmetry_equiv_pos_site_id
 _symmetry_equiv_pos_as_xyz
  1  'x, y, z'
loop_
 _atom_site_type_symbol
 _atom_site_label
 _atom_site_symmetry_multiplicity
 _atom_site_fract_x
 _atom_site_fract_y
 _atom_site_fract_z
 _atom_site_occupancy
  Li  Li0  1  0.13247267  0.87228340  0.19010276  1
  Li  Li1  1  0.13249196  0.26016443  0.69006719  1
  Li  Li2  1  0.46105601  0.53419844  0.35676747  1
  Li  Li3  1  0.07315866  0.53895756  0.35677066  1
  Li  Li4  1  0.79437967  0.59351493  0.52343811  1
  Li  Li5  1  0.12771017  0.26017901  0.19009528  1
  Li  Li6  1  0.07316584  0.53417154  0.85674258  1
  Li  Li7  1  0.46103948  0.92684436  0.85676130  1
  Li  Li8  1  0.73983495  0.86750489  0.19006527  1
  Li  Li9  1  0.73981754  0.87228534  0.69009813  1
  Li  Li10  1  0.46580051  0.53894471  0.85676816  1
  Li  Li11  1  0.46583208  0.92683543  0.35673086  1
  Li  Li12  1  0.40649425  0.20083462  0.52340917  1
  Li  Li13  1  0.40648750  0.20561828  0.02343451  1
  Li  Li14  1  0.12771127  0.86752650  0.69009601  1
  Li  Li15  1  0.79438486  0.20086594  0.02343016  1
  Li  Li16  1  0.79913866  0.20561902  0.52342915  1
  Li  Li17  1  0.79915849  0.59349797  0.02340822  1
  Br  Br18  1  0.54400045  0.09223181  0.09665712  1
  Br  Br19  1  0.54398949  0.45179224  0.59658650  1
  Br  Br20  1  0.24110303  0.12266893  0.26332626  1
  Br  Br21  1  0.88153608  0.75887715  0.26333058  1
  Br  Br22  1  0.57446210  0.78513651  0.42998395  1
  Br  Br23  1  0.90778969  0.45180159  0.09665972  1
  Br  Br24  1  0.88153774  0.12267831  0.76324573  1
  Br  Br25  1  0.24111904  0.11846429  0.76332532  1
  Br  Br26  1  0.54820593  0.45600976  0.09658537  1
  Br  Br27  1  0.54820071  0.09221263  0.59665285  1
  Br  Br28  1  0.87732905  0.75889800  0.76333717  1
  Br  Br29  1  0.87732238  0.11846088  0.26324494  1
  Br  Br30  1  0.21488006  0.78934758  0.42991814  1
  Br  Br31  1  0.21486436  0.42554250  0.92998746  1
  Br  Br32  1  0.90777337  0.45600522  0.59666197  1
  Br  Br33  1  0.57443101  0.78933276  0.92998836  1
  Br  Br34  1  0.21066963  0.42556529  0.42999111  1
  Br  Br35  1  0.21065129  0.78512818  0.92991640  1
