# generated using pymatgen
data_LiBr
_symmetry_space_group_name_H-M   'P 1'
_cell_length_a   6.27939379
_cell_length_b   4.76427405
_cell_length_c   6.61619710
_cell_angle_alpha   89.99996830
_cell_angle_beta   91.94542602
_cell_angle_gamma   89.99997254
_symmetry_Int_Tables_number   1
_chemical_formula_structural   LiBr
_chemical_formula_sum   'Li4 Br4'
_cell_volume   197.82104683
_cell_formula_units_Z   4
loop_
 _symmetry_equiv_pos_site_id
 _symmetry_equiv_pos_as_xyz
  1  'x, y, z'
loop_
 _atom_site_type_symbol
 _atom_site_label
 _atom_site_symmetry_multiplicity
 _atom_site_fract_x
 _atom_site_fract_y
 _atom_site_fract_z
 _atom_site_occupancy
  Li  Li0  1  0.70776686  0.48162576  0.59269632  1
  Li  Li1  1  0.20776879  0.98164655  0.59269897  1
  Li  Li2  1  0.70776664  0.51837553  0.09269598  1
  Li  Li3  1  0.20776880  0.01835070  0.09269918  1
  Br  Br4  1  0.45559101  0.25289457  0.84217870  1
  Br  Br5  1  0.95558997  0.75289475  0.84216164  1
  Br  Br6  1  0.45559201  0.74710547  0.34217878  1
  Br  Br7  1  0.95559134  0.24710666  0.34216155  1
