# generated using pymatgen
data_LiBr
_symmetry_space_group_name_H-M   'P 1'
_cell_length_a   6.68915393
_cell_length_b   3.86389788
_cell_length_c   6.44755946
_cell_angle_alpha   90.00051750
_cell_angle_beta   89.99953657
_cell_angle_gamma   90.00028278
_symmetry_Int_Tables_number   1
_chemical_formula_structural   LiBr
_chemical_formula_sum   'Li4 Br4'
_cell_volume   166.64496068
_cell_formula_units_Z   4
loop_
 _symmetry_equiv_pos_site_id
 _symmetry_equiv_pos_as_xyz
  1  'x, y, z'
loop_
 _atom_site_type_symbol
 _atom_site_label
 _atom_site_symmetry_multiplicity
 _atom_site_fract_x
 _atom_site_fract_y
 _atom_site_fract_z
 _atom_site_occupancy
  Li  Li0  1  0.49857442  0.49886757  0.23958149  1
  Li  Li1  1  -0.00142815  0.00114069  0.23958346  1
  Li  Li2  1  0.50142327  0.50111584  0.73958018  1
  Li  Li3  1  0.00142548  -0.00112483  0.73958385  1
  Br  Br4  1  0.16675082  0.50054284  0.99057337  1
  Br  Br5  1  0.66675558  -0.00054156  0.99057219  1
  Br  Br6  1  0.83325216  0.49945823  0.49056674  1
  Br  Br7  1  0.33324642  0.00054122  0.49056615  1
