# generated using pymatgen
data_LiI
_symmetry_space_group_name_H-M   'P 1'
_cell_length_a   8.61467715
_cell_length_b   8.61467351
_cell_length_c   14.05521658
_cell_angle_alpha   90.00014624
_cell_angle_beta   89.99993706
_cell_angle_gamma   90.00039796
_symmetry_Int_Tables_number   1
_chemical_formula_structural   LiI
_chemical_formula_sum   'Li16 I16'
_cell_volume   1043.07460183
_cell_formula_units_Z   16
loop_
 _symmetry_equiv_pos_site_id
 _symmetry_equiv_pos_as_xyz
  1  'x, y, z'
loop_
 _atom_site_type_symbol
 _atom_site_label
 _atom_site_symmetry_multiplicity
 _atom_site_fract_x
 _atom_site_fract_y
 _atom_site_fract_z
 _atom_site_occupancy
  Li  Li0  1  0.70138319  0.20282960  0.00019847  1
  Li  Li1  1  0.29717001  0.20138662  0.49980216  1
  Li  Li2  1  0.70134921  0.70288319  0.24977627  1
  Li  Li3  1  0.29861448  0.79716943  0.00019823  1
  Li  Li4  1  0.70283046  0.79860912  0.49980163  1
  Li  Li5  1  0.79711865  0.20135157  0.25022350  1
  Li  Li6  1  0.20288209  0.79865281  0.25022449  1
  Li  Li7  1  0.29711668  0.70135292  0.75022464  1
  Li  Li8  1  0.70288371  0.29864650  0.75022334  1
  Li  Li9  1  0.79861513  0.29716854  0.50019690  1
  Li  Li10  1  0.20283057  0.29861437  -0.00019827  1
  Li  Li11  1  0.20138509  0.70283066  0.50019947  1
  Li  Li12  1  0.79716797  0.70138560  -0.00019822  1
  Li  Li13  1  0.20134895  0.20288474  0.74977646  1
  Li  Li14  1  0.79865122  0.79711829  0.74977515  1
  Li  Li15  1  0.29865219  0.29711964  0.24977583  1
  I  I16  1  0.04582167  0.24957797  0.37438070  1
  I  I17  1  0.25042015  0.54582155  0.12561923  1
  I  I18  1  0.04579178  0.74954989  0.87560196  1
  I  I19  1  -0.04582051  0.75041872  0.37438097  1
  I  I20  1  0.74957776  0.45417997  0.12561893  1
  I  I21  1  0.75045133  0.54579081  0.62439882  1
  I  I22  1  0.24955223  0.45420878  0.62439904  1
  I  I23  1  0.25045013  0.04579359  0.12439832  1
  I  I24  1  0.74955040  -0.04579234  0.12439881  1
  I  I25  1  0.45417972  0.25042195  0.87438063  1
  I  I26  1  0.24957808  -0.04581920  0.62561971  1
  I  I27  1  0.54582053  0.74958060  0.87438060  1
  I  I28  1  0.75042119  0.04581879  0.62561745  1
  I  I29  1  0.54579297  0.24954990  0.37560097  1
  I  I30  1  0.45420621  0.75044827  0.37560181  1
  I  I31  1  -0.04579324  0.25044718  0.87560198  1
