# generated using pymatgen
data_NaI
_symmetry_space_group_name_H-M   'P 1'
_cell_length_a   12.55573453
_cell_length_b   12.55584226
_cell_length_c   4.58649407
_cell_angle_alpha   90.00169478
_cell_angle_beta   89.99096454
_cell_angle_gamma   89.99966609
_symmetry_Int_Tables_number   1
_chemical_formula_structural   NaI
_chemical_formula_sum   'Na8 I8'
_cell_volume   723.05079232
_cell_formula_units_Z   8
loop_
 _symmetry_equiv_pos_site_id
 _symmetry_equiv_pos_as_xyz
  1  'x, y, z'
loop_
 _atom_site_type_symbol
 _atom_site_label
 _atom_site_symmetry_multiplicity
 _atom_site_fract_x
 _atom_site_fract_y
 _atom_site_fract_z
 _atom_site_occupancy
  Na  Na0  1  0.16285124  0.49963550  0.52160145  1
  Na  Na1  1  0.00036894  0.16284721  0.27154496  1
  Na  Na2  1  0.49963949  0.33715533  0.77150238  1
  Na  Na3  1  0.50036895  0.66284724  0.77154517  1
  Na  Na4  1  0.99963950  0.83715535  0.27150219  1
  Na  Na5  1  0.66285126  0.99963548  0.02160194  1
  Na  Na6  1  0.33716188  0.00036697  0.02144577  1
  Na  Na7  1  0.83716190  0.50036694  0.52144535  1
  I  I8  1  0.82891429  0.00005591  0.51205747  1
  I  I9  1  0.49993563  0.82891619  0.26206319  1
  I  I10  1  0.00004706  0.67108447  0.76204764  1
  I  I11  1  -0.00006437  0.32891619  0.76206290  1
  I  I12  1  0.50004706  0.17108448  0.26204789  1
  I  I13  1  0.32891426  0.50005591  0.01205713  1
  I  I14  1  0.67108148  0.49993841  0.01205688  1
  I  I15  1  0.17108145  -0.00006158  0.51205721  1
