# generated using pymatgen
data_LiBr
_symmetry_space_group_name_H-M   'P 1'
_cell_length_a   11.50661613
_cell_length_b   11.50671625
_cell_length_c   7.94503124
_cell_angle_alpha   90.00797060
_cell_angle_beta   89.99144445
_cell_angle_gamma   120.00029629
_symmetry_Int_Tables_number   1
_chemical_formula_structural   LiBr
_chemical_formula_sum   'Li18 Br18'
_cell_volume   911.01172542
_cell_formula_units_Z   18
loop_
 _symmetry_equiv_pos_site_id
 _symmetry_equiv_pos_as_xyz
  1  'x, y, z'
loop_
 _atom_site_type_symbol
 _atom_site_label
 _atom_site_symmetry_multiplicity
 _atom_site_fract_x
 _atom_site_fract_y
 _atom_site_fract_z
 _atom_site_occupancy
  Li  Li0  1  0.12907249  0.86865568  0.53030910  1
  Li  Li1  1  0.12919916  0.26060421  0.03038324  1
  Li  Li2  1  0.46468435  0.53759791  0.69697655  1
  Li  Li3  1  0.07286890  0.53520463  0.69742926  1
  Li  Li4  1  0.79814012  0.59379760  0.86409394  1
  Li  Li5  1  0.13146166  0.26045817  0.53075342  1
  Li  Li6  1  0.07272506  0.53746442  0.19705855  1
  Li  Li7  1  0.46479368  -0.07287333  0.19741672  1
  Li  Li8  1  0.73939409  0.87079766  0.53038547  1
  Li  Li9  1  0.73953763  0.86853444  0.03074841  1
  Li  Li10  1  0.46240413  0.53532841  0.19696891  1
  Li  Li11  1  0.46253280  -0.07272604  0.69705317  1
  Li  Li12  1  0.40605613  0.20413202  0.86372059  1
  Li  Li13  1  0.40620761  0.20186990  0.36408176  1
  Li  Li14  1  0.13134231  0.87092985  0.03031901  1
  Li  Li15  1  0.79800842  0.20426591  0.36363830  1
  Li  Li16  1  0.79573650  0.20198960  0.86364239  1
  Li  Li17  1  0.79586857  0.59393501  0.36372192  1
  Br  Br18  1  0.21391421  0.42564829  0.77079696  1
  Br  Br19  1  0.21364800  0.78812873  0.27072328  1
  Br  Br20  1  -0.09230895  0.45275737  0.93747211  1
  Br  Br21  1  0.54512473  0.09225683  0.93730137  1
  Br  Br22  1  0.24108029  0.12154425  0.10397349  1
  Br  Br23  1  0.57440537  0.78820306  0.77064324  1
  Br  Br24  1  0.54520281  0.45302027  0.43738583  1
  Br  Br25  1  -0.09225749  0.45487430  0.43732391  1
  Br  Br26  1  0.21187232  0.78635306  0.77072012  1
  Br  Br27  1  0.21179917  0.42559230  0.27064470  1
  Br  Br28  1  0.54723743  0.09231545  0.43747314  1
  Br  Br29  1  0.54698631  0.45479565  0.93737833  1
  Br  Br30  1  0.87853872  0.11967869  0.10405081  1
  Br  Br31  1  0.87845961  0.75891973  0.60398752  1
  Br  Br32  1  0.57435293  0.78609127  0.27080295  1
  Br  Br33  1  0.24102061  0.11942469  0.60413441  1
  Br  Br34  1  0.88057251  0.75897713  0.10413886  1
  Br  Br35  1  0.88031783  0.12145286  0.60405556  1
