# generated using pymatgen
data_NaI
_symmetry_space_group_name_H-M   'P 1'
_cell_length_a   8.77475695
_cell_length_b   8.77475621
_cell_length_c   8.32830593
_cell_angle_alpha   89.99995511
_cell_angle_beta   89.99994659
_cell_angle_gamma   89.99999515
_symmetry_Int_Tables_number   1
_chemical_formula_structural   NaI
_chemical_formula_sum   'Na8 I8'
_cell_volume   641.24918403
_cell_formula_units_Z   8
loop_
 _symmetry_equiv_pos_site_id
 _symmetry_equiv_pos_as_xyz
  1  'x, y, z'
loop_
 _atom_site_type_symbol
 _atom_site_label
 _atom_site_symmetry_multiplicity
 _atom_site_fract_x
 _atom_site_fract_y
 _atom_site_fract_z
 _atom_site_occupancy
  Na  Na0  1  0.64415339  0.85573505  0.22420834  1
  Na  Na1  1  0.35573485  0.14415354  0.72420828  1
  Na  Na2  1  0.35584599  0.14426501  0.22420413  1
  Na  Na3  1  0.85573548  0.35584578  0.22420484  1
  Na  Na4  1  0.14426520  0.64415346  0.22420755  1
  Na  Na5  1  0.85584572  0.35573518  0.72420480  1
  Na  Na6  1  0.64426524  0.85584586  0.72420407  1
  Na  Na7  1  0.14415353  0.64426552  0.72420751  1
  I  I8  1  0.66183930  0.16138485  0.97434398  1
  I  I9  1  0.66138471  0.16183931  0.47434389  1
  I  I10  1  0.33816309  0.83861348  0.97434752  1
  I  I11  1  0.16138593  0.33816144  0.97434566  1
  I  I12  1  0.83861475  0.66183772  0.97434595  1
  I  I13  1  0.83816148  0.66138583  0.47434548  1
  I  I14  1  0.33861363  0.83816310  0.47434743  1
  I  I15  1  0.16183769  0.33861488  0.47434585  1
