# generated using pymatgen
data_LiI
_symmetry_space_group_name_H-M   'P 1'
_cell_length_a   8.18736490
_cell_length_b   8.98489946
_cell_length_c   8.29590890
_cell_angle_alpha   89.99982843
_cell_angle_beta   89.99889726
_cell_angle_gamma   89.99411625
_symmetry_Int_Tables_number   1
_chemical_formula_structural   LiI
_chemical_formula_sum   'Li8 I8'
_cell_volume   610.26904340
_cell_formula_units_Z   8
loop_
 _symmetry_equiv_pos_site_id
 _symmetry_equiv_pos_as_xyz
  1  'x, y, z'
loop_
 _atom_site_type_symbol
 _atom_site_label
 _atom_site_symmetry_multiplicity
 _atom_site_fract_x
 _atom_site_fract_y
 _atom_site_fract_z
 _atom_site_occupancy
  Li  Li0  1  0.25106209  0.87576702  0.31022251  1
  Li  Li1  1  0.25107302  0.12425119  0.81022484  1
  Li  Li2  1  0.75106333  0.62423735  0.68976637  1
  Li  Li3  1  0.24885645  0.62426065  0.81024034  1
  Li  Li4  1  0.74887221  0.87574478  0.18976816  1
  Li  Li5  1  0.24887997  0.37575958  0.31023877  1
  Li  Li6  1  0.75108771  0.37574091  0.18977108  1
  Li  Li7  1  0.74887996  0.12423813  0.68977296  1
  I  I8  1  0.24993342  0.12541253  0.13288046  1
  I  I9  1  0.24994684  0.87460471  0.63287572  1
  I  I10  1  0.74994186  0.37459935  0.86710477  1
  I  I11  1  0.25010934  0.37461601  0.63289486  1
  I  I12  1  0.75010312  0.12539393  0.36712002  1
  I  I13  1  0.25012087  0.62540013  0.13289635  1
  I  I14  1  0.74995378  0.62538404  0.36710679  1
  I  I15  1  0.75011605  0.87458969  0.86711599  1
