# generated using pymatgen
data_LiI
_symmetry_space_group_name_H-M   'P 1'
_cell_length_a   9.97454591
_cell_length_b   9.97471186
_cell_length_c   10.35356495
_cell_angle_alpha   89.98067414
_cell_angle_beta   90.01174561
_cell_angle_gamma   120.02609611
_symmetry_Int_Tables_number   1
_chemical_formula_structural   LiI
_chemical_formula_sum   'Li9 I9'
_cell_volume   891.86628972
_cell_formula_units_Z   9
loop_
 _symmetry_equiv_pos_site_id
 _symmetry_equiv_pos_as_xyz
  1  'x, y, z'
loop_
 _atom_site_type_symbol
 _atom_site_label
 _atom_site_symmetry_multiplicity
 _atom_site_fract_x
 _atom_site_fract_y
 _atom_site_fract_z
 _atom_site_occupancy
  Li  Li0  1  0.53405643  0.46417495  0.82700400  1
  Li  Li1  1  0.86915393  0.73664093  0.49371276  1
  Li  Li2  1  0.86739097  0.13083766  0.49367937  1
  Li  Li3  1  0.20248047  0.40330216  0.16038333  1
  Li  Li4  1  0.20072478  0.79750774  0.16035221  1
  Li  Li5  1  0.59681671  0.79923533  0.16035267  1
  Li  Li6  1  0.53580741  0.06997216  0.82704782  1
  Li  Li7  1  0.26347476  0.13257654  0.49367429  1
  Li  Li8  1  -0.06985857  0.46590311  0.82701530  1
  I  I9  1  0.82683378  0.17526681  0.74402278  1
  I  I10  1  0.15811876  0.31825036  0.41073747  1
  I  I11  1  0.16016899  0.84193884  0.41069384  1
  I  I12  1  0.49146487  -0.01507097  0.07741956  1
  I  I13  1  0.49350437  0.50860086  0.07735343  1
  I  I14  1  0.01502369  0.50642484  0.07740161  1
  I  I15  1  0.82479538  0.65159026  0.74407146  1
  I  I16  1  0.68169714  0.83976120  0.41073315  1
  I  I17  1  0.34834611  0.17308722  0.74406193  1
