# generated using pymatgen
data_LiBr
_symmetry_space_group_name_H-M   'P 1'
_cell_length_a   10.97423121
_cell_length_b   3.89905212
_cell_length_c   3.89604291
_cell_angle_alpha   90.00010131
_cell_angle_beta   90.00005390
_cell_angle_gamma   90.00005469
_symmetry_Int_Tables_number   1
_chemical_formula_structural   LiBr
_chemical_formula_sum   'Li4 Br4'
_cell_volume   166.70816744
_cell_formula_units_Z   4
loop_
 _symmetry_equiv_pos_site_id
 _symmetry_equiv_pos_as_xyz
  1  'x, y, z'
loop_
 _atom_site_type_symbol
 _atom_site_label
 _atom_site_symmetry_multiplicity
 _atom_site_fract_x
 _atom_site_fract_y
 _atom_site_fract_z
 _atom_site_occupancy
  Li  Li0  1  0.12527589  0.75080673  0.00095228  1
  Li  Li1  1  0.87472442  0.25080758  0.49903945  1
  Li  Li2  1  0.37472245  0.24919129  0.50095201  1
  Li  Li3  1  0.62527708  0.74919022  0.99905272  1
  Br  Br4  1  0.87499064  0.75106448  -0.00076038  1
  Br  Br5  1  0.12500927  0.25106589  0.50076053  1
  Br  Br6  1  0.62500976  0.24893769  0.49924277  1
  Br  Br7  1  0.37499049  0.74893613  0.00076061  1
