# generated using pymatgen
data_NaI
_symmetry_space_group_name_H-M   'P 1'
_cell_length_a   5.58206045
_cell_length_b   5.56115029
_cell_length_c   18.40178940
_cell_angle_alpha   90.00091925
_cell_angle_beta   89.99996037
_cell_angle_gamma   120.31993633
_symmetry_Int_Tables_number   1
_chemical_formula_structural   NaI
_chemical_formula_sum   'Na6 I6'
_cell_volume   493.10645763
_cell_formula_units_Z   6
loop_
 _symmetry_equiv_pos_site_id
 _symmetry_equiv_pos_as_xyz
  1  'x, y, z'
loop_
 _atom_site_type_symbol
 _atom_site_label
 _atom_site_symmetry_multiplicity
 _atom_site_fract_x
 _atom_site_fract_y
 _atom_site_fract_z
 _atom_site_occupancy
  Na  Na0  1  0.33201185  0.66871708  0.21095921  1
  Na  Na1  1  0.65989012  0.33092321  0.04422078  1
  Na  Na2  1  0.34011103  0.66907867  0.54422096  1
  Na  Na3  1  0.67079485  0.34314723  0.37779637  1
  Na  Na4  1  0.32920230  0.65685134  0.87779566  1
  Na  Na5  1  0.66798598  0.33128033  0.71095875  1
  I  I6  1  0.66655990  0.33929467  0.21003531  1
  I  I7  1  0.32773651  0.66234532  0.04345484  1
  I  I8  1  0.67226232  0.33765276  0.54345509  1
  I  I9  1  0.33731879  0.67389872  0.37661549  1
  I  I10  1  0.66268586  0.32610278  0.87661482  1
  I  I11  1  0.33344050  0.66070789  0.71003498  1
