# generated using pymatgen
data_LiBr
_symmetry_space_group_name_H-M   'P 1'
_cell_length_a   11.95055050
_cell_length_b   11.95054826
_cell_length_c   7.28595236
_cell_angle_alpha   90.00109755
_cell_angle_beta   89.99892440
_cell_angle_gamma   120.00346906
_symmetry_Int_Tables_number   1
_chemical_formula_structural   LiBr
_chemical_formula_sum   'Li18 Br18'
_cell_volume   901.10939522
_cell_formula_units_Z   18
loop_
 _symmetry_equiv_pos_site_id
 _symmetry_equiv_pos_as_xyz
  1  'x, y, z'
loop_
 _atom_site_type_symbol
 _atom_site_label
 _atom_site_symmetry_multiplicity
 _atom_site_fract_x
 _atom_site_fract_y
 _atom_site_fract_z
 _atom_site_occupancy
  Li  Li0  1  0.37270596  0.49741090  0.77723002  1
  Li  Li1  1  0.37270543  0.87529889  0.27723067  1
  Li  Li2  1  0.83594484  0.29401755  0.94393574  1
  Li  Li3  1  0.45807616  0.16406118  0.94393854  1
  Li  Li4  1  0.16922725  0.20861247  0.11056629  1
  Li  Li5  1  0.50259197  0.87530206  0.77723269  1
  Li  Li6  1  0.45807298  0.29401587  0.44393918  1
  Li  Li7  1  0.83593908  0.54192397  0.44393784  1
  Li  Li8  1  0.12470124  0.62729463  0.77723032  1
  Li  Li9  1  0.12469746  0.49740744  0.27723269  1
  Li  Li10  1  0.70598250  0.16405667  0.44393781  1
  Li  Li11  1  0.70598425  0.54192686  0.94393970  1
  Li  Li12  1  0.79138840  0.96061120  0.11056550  1
  Li  Li13  1  0.79138734  0.83077291  0.61056537  1
  Li  Li14  1  0.50258863  0.62729428  0.27723007  1
  Li  Li15  1  0.16923892  0.96061903  0.61056437  1
  Li  Li16  1  0.03938127  0.83076055  0.11056404  1
  Li  Li17  1  0.03938874  0.20861141  0.61056554  1
  Br  Br18  1  0.29404580  0.45877460  0.11301455  1
  Br  Br19  1  0.29404923  0.83527393  0.61301752  1
  Br  Br20  1  0.87453407  0.37259678  0.27971103  1
  Br  Br21  1  0.49806100  0.12546392  0.27971242  1
  Br  Br22  1  0.20788876  0.16861447  0.44635932  1
  Br  Br23  1  0.54122684  0.83527536  0.11301553  1
  Br  Br24  1  0.49806086  0.37259830  0.77971408  1
  Br  Br25  1  0.87453621  0.50193874  0.77971202  1
  Br  Br26  1  0.16472628  0.70595046  0.11301716  1
  Br  Br27  1  0.16472471  0.45877307  0.61301545  1
  Br  Br28  1  0.62740306  0.12546559  0.77971243  1
  Br  Br29  1  0.62740159  0.50193953  0.27971447  1
  Br  Br30  1  0.83138649  0.03927365  0.44636283  1
  Br  Br31  1  0.83138580  0.79211117  0.94635857  1
  Br  Br32  1  0.54122519  0.70595415  0.61301471  1
  Br  Br33  1  0.20788654  0.03927174  0.94636004  1
  Br  Br34  1  0.96072824  0.79211363  0.44635959  1
  Br  Br35  1  0.96072689  0.16861306  0.94636303  1
