# generated using pymatgen
data_LiBr
_symmetry_space_group_name_H-M   'P 1'
_cell_length_a   10.03980025
_cell_length_b   10.03980283
_cell_length_c   8.46536171
_cell_angle_alpha   90.00001326
_cell_angle_beta   90.00000570
_cell_angle_gamma   89.99992168
_symmetry_Int_Tables_number   1
_chemical_formula_structural   LiBr
_chemical_formula_sum   'Li16 Br16'
_cell_volume   853.28827039
_cell_formula_units_Z   16
loop_
 _symmetry_equiv_pos_site_id
 _symmetry_equiv_pos_as_xyz
  1  'x, y, z'
loop_
 _atom_site_type_symbol
 _atom_site_label
 _atom_site_symmetry_multiplicity
 _atom_site_fract_x
 _atom_site_fract_y
 _atom_site_fract_z
 _atom_site_occupancy
  Li  Li0  1  0.00142824  0.83089712  0.40912748  1
  Li  Li1  1  0.33089800  0.00142808  0.65912723  1
  Li  Li2  1  -0.00142808  0.83089740  0.90912795  1
  Li  Li3  1  -0.00142870  0.16910258  0.40912700  1
  Li  Li4  1  0.66910193  -0.00142716  0.65912693  1
  Li  Li5  1  0.16910179  0.50142752  0.65912640  1
  Li  Li6  1  0.83089792  0.49857294  0.65912791  1
  Li  Li7  1  0.66910169  0.00142779  0.15912638  1
  Li  Li8  1  0.33089820  -0.00142696  0.15912805  1
  Li  Li9  1  0.49857171  0.66910165  0.90912691  1
  Li  Li10  1  0.16910142  0.49857224  0.15912724  1
  Li  Li11  1  0.50142793  0.33089914  0.90912736  1
  Li  Li12  1  0.83089869  0.50142754  0.15912709  1
  Li  Li13  1  0.49857310  0.33089806  0.40912752  1
  Li  Li14  1  0.50142836  0.66910191  0.40912654  1
  Li  Li15  1  0.00142857  0.16910147  0.90912652  1
  Br  Br16  1  0.50116859  0.80805740  0.15918863  1
  Br  Br17  1  0.30805737  0.50116896  0.40918871  1
  Br  Br18  1  0.49883119  0.80805716  0.65918847  1
  Br  Br19  1  0.49883116  0.19194313  0.15918884  1
  Br  Br20  1  0.69194348  0.49883078  0.40918925  1
  Br  Br21  1  0.19194285  0.00116949  0.40918943  1
  Br  Br22  1  0.80805685  -0.00116999  0.40918860  1
  Br  Br23  1  0.69194303  0.50116900  0.90918911  1
  Br  Br24  1  0.30805647  0.49883126  0.90918851  1
  Br  Br25  1  -0.00116861  0.69194357  0.65918930  1
  Br  Br26  1  0.19194341  -0.00117000  0.90918920  1
  Br  Br27  1  0.00116813  0.30805649  0.65918880  1
  Br  Br28  1  0.80805705  0.00116866  0.90918841  1
  Br  Br29  1  -0.00116846  0.30805634  0.15918842  1
  Br  Br30  1  0.00116824  0.69194316  0.15918923  1
  Br  Br31  1  0.50116849  0.19194329  0.65918923  1
