# generated using pymatgen
data_NaBr
_symmetry_space_group_name_H-M   'P 1'
_cell_length_a   6.03152940
_cell_length_b   6.04469299
_cell_length_c   6.04126523
_cell_angle_alpha   89.99999995
_cell_angle_beta   90.00000453
_cell_angle_gamma   90.00000017
_symmetry_Int_Tables_number   1
_chemical_formula_structural   NaBr
_chemical_formula_sum   'Na4 Br4'
_cell_volume   220.25693946
_cell_formula_units_Z   4
loop_
 _symmetry_equiv_pos_site_id
 _symmetry_equiv_pos_as_xyz
  1  'x, y, z'
loop_
 _atom_site_type_symbol
 _atom_site_label
 _atom_site_symmetry_multiplicity
 _atom_site_fract_x
 _atom_site_fract_y
 _atom_site_fract_z
 _atom_site_occupancy
  Na  Na0  1  -0.00120838  0.74953255  0.76536716  1
  Na  Na1  1  0.49879167  0.25046747  0.76536752  1
  Na  Na2  1  0.00120828  0.25046733  0.26536677  1
  Na  Na3  1  0.50120832  0.74953266  0.26536640  1
  Br  Br4  1  0.50093602  0.24970550  0.26495088  1
  Br  Br5  1  0.00093605  0.75029448  0.26495092  1
  Br  Br6  1  0.49906400  0.75029449  0.76494999  1
  Br  Br7  1  -0.00093597  0.24970551  0.76494997  1
