# generated using pymatgen
data_LiBr
_symmetry_space_group_name_H-M   'P 1'
_cell_length_a   6.32419870
_cell_length_b   4.99193715
_cell_length_c   6.24806187
_cell_angle_alpha   89.99994959
_cell_angle_beta   89.99979822
_cell_angle_gamma   90.00011519
_symmetry_Int_Tables_number   1
_chemical_formula_structural   LiBr
_chemical_formula_sum   'Li4 Br4'
_cell_volume   197.25132838
_cell_formula_units_Z   4
loop_
 _symmetry_equiv_pos_site_id
 _symmetry_equiv_pos_as_xyz
  1  'x, y, z'
loop_
 _atom_site_type_symbol
 _atom_site_label
 _atom_site_symmetry_multiplicity
 _atom_site_fract_x
 _atom_site_fract_y
 _atom_site_fract_z
 _atom_site_occupancy
  Li  Li0  1  0.00033605  0.50361410  0.50021721  1
  Li  Li1  1  -0.00033595  0.00361232  -0.00022215  1
  Li  Li2  1  0.49966654  0.49638480  0.00022204  1
  Li  Li3  1  0.50033340  -0.00361504  0.49978367  1
  Br  Br4  1  0.25026279  0.24933548  0.25197173  1
  Br  Br5  1  0.74973676  0.74933694  0.24802828  1
  Br  Br6  1  0.24973708  0.75066504  0.75197099  1
  Br  Br7  1  0.75026333  0.25066636  0.74802822  1
