# generated using pymatgen
data_LiI
_symmetry_space_group_name_H-M   'P 1'
_cell_length_a   4.26109311
_cell_length_b   4.26122298
_cell_length_c   10.34805209
_cell_angle_alpha   89.99848173
_cell_angle_beta   90.00282295
_cell_angle_gamma   119.99933434
_symmetry_Int_Tables_number   1
_chemical_formula_structural   LiI
_chemical_formula_sum   'Li3 I3'
_cell_volume   162.72243524
_cell_formula_units_Z   3
loop_
 _symmetry_equiv_pos_site_id
 _symmetry_equiv_pos_as_xyz
  1  'x, y, z'
loop_
 _atom_site_type_symbol
 _atom_site_label
 _atom_site_symmetry_multiplicity
 _atom_site_fract_x
 _atom_site_fract_y
 _atom_site_fract_z
 _atom_site_occupancy
  Li  Li0  1  0.33065842  0.32888378  0.52181082  1
  Li  Li1  1  0.67134066  0.00189889  0.18842915  1
  Li  Li2  1  -0.00186915  0.66925531  0.85489295  1
  I  I3  1  0.00119151  0.66627200  0.35559313  1
  I  I4  1  0.33360377  0.33481290  0.02214916  1
  I  I5  1  0.66507479  -0.00112287  0.68885362  1
