# generated using pymatgen
data_LiBr
_symmetry_space_group_name_H-M   'P 1'
_cell_length_a   20.67313510
_cell_length_b   5.11155578
_cell_length_c   6.94331385
_cell_angle_alpha   90.00019903
_cell_angle_beta   90.00520017
_cell_angle_gamma   90.00829996
_symmetry_Int_Tables_number   1
_chemical_formula_structural   LiBr
_chemical_formula_sum   'Li16 Br16'
_cell_volume   733.71303961
_cell_formula_units_Z   16
loop_
 _symmetry_equiv_pos_site_id
 _symmetry_equiv_pos_as_xyz
  1  'x, y, z'
loop_
 _atom_site_type_symbol
 _atom_site_label
 _atom_site_symmetry_multiplicity
 _atom_site_fract_x
 _atom_site_fract_y
 _atom_site_fract_z
 _atom_site_occupancy
  Li  Li0  1  0.19401195  0.47981451  0.77895240  1
  Li  Li1  1  0.80599248  0.52025553  0.77898748  1
  Li  Li2  1  0.05599079  0.72977758  0.02892921  1
  Li  Li3  1  0.30599180  0.52025984  0.27897350  1
  Li  Li4  1  0.55599125  0.72978850  0.52892086  1
  Li  Li5  1  0.44401270  0.77015375  0.02890823  1
  Li  Li6  1  0.69401143  0.47980780  0.27896734  1
  Li  Li7  1  0.55599115  0.22978888  0.02891773  1
  Li  Li8  1  0.44401255  0.27015333  0.52890505  1
  Li  Li9  1  0.69401138  -0.02019248  0.77896972  1
  Li  Li10  1  0.30599246  0.02025853  0.77898370  1
  Li  Li11  1  0.05599060  0.22977833  0.52892763  1
  Li  Li12  1  0.94401212  0.77014445  0.52890156  1
  Li  Li13  1  0.94401208  0.27014405  0.02890340  1
  Li  Li14  1  0.19401145  -0.02018445  0.27896242  1
  Li  Li15  1  0.80599264  0.02025547  0.27899030  1
  Br  Br16  1  0.55947218  0.74729248  0.89966277  1
  Br  Br17  1  0.44052419  0.25261143  0.89963438  1
  Br  Br18  1  0.69052459  -0.00267895  0.14970917  1
  Br  Br19  1  0.94052411  0.25259961  0.39963372  1
  Br  Br20  1  0.19052458  -0.00267146  0.64970173  1
  Br  Br21  1  0.80947191  0.50278007  0.14973927  1
  Br  Br22  1  0.05947196  0.74727843  0.39967032  1
  Br  Br23  1  0.19052427  0.49732993  0.14970125  1
  Br  Br24  1  0.80947197  0.00277936  0.64973965  1
  Br  Br25  1  0.05947220  0.24727836  0.89966993  1
  Br  Br26  1  0.94052431  0.75259944  0.89963382  1
  Br  Br27  1  0.69052451  0.49732048  0.64970903  1
  Br  Br28  1  0.30947217  0.50278592  0.64973470  1
  Br  Br29  1  0.30947192  0.00278668  0.14973526  1
  Br  Br30  1  0.55947213  0.24729270  0.39966234  1
  Br  Br31  1  0.44052415  0.75261190  0.39963446  1
