# generated using pymatgen
data_LiI
_symmetry_space_group_name_H-M   'P 1'
_cell_length_a   7.15683992
_cell_length_b   7.15641105
_cell_length_c   4.35476106
_cell_angle_alpha   89.99731620
_cell_angle_beta   90.00029782
_cell_angle_gamma   120.00721104
_symmetry_Int_Tables_number   1
_chemical_formula_structural   LiI
_chemical_formula_sum   'Li3 I3'
_cell_volume   193.14344864
_cell_formula_units_Z   3
loop_
 _symmetry_equiv_pos_site_id
 _symmetry_equiv_pos_as_xyz
  1  'x, y, z'
loop_
 _atom_site_type_symbol
 _atom_site_label
 _atom_site_symmetry_multiplicity
 _atom_site_fract_x
 _atom_site_fract_y
 _atom_site_fract_z
 _atom_site_occupancy
  Li  Li0  1  0.93787829  0.66760790  0.01398091  1
  Li  Li1  1  0.33230671  0.27023107  0.68024244  1
  Li  Li2  1  0.72971071  0.06212345  0.34730879  1
  I  I3  1  0.33372001  0.02279381  0.17987926  1
  I  I4  1  -0.02274889  0.31090504  0.84683157  1
  I  I5  1  0.68913318  0.66633873  0.51349595  1
