# generated using pymatgen
data_LiBr
_symmetry_space_group_name_H-M   'P 1'
_cell_length_a   10.23431364
_cell_length_b   10.23429795
_cell_length_c   12.63214112
_cell_angle_alpha   89.99610205
_cell_angle_beta   90.00398394
_cell_angle_gamma   119.99892790
_symmetry_Int_Tables_number   1
_chemical_formula_structural   LiBr
_chemical_formula_sum   'Li18 Br18'
_cell_volume   1145.85343098
_cell_formula_units_Z   18
loop_
 _symmetry_equiv_pos_site_id
 _symmetry_equiv_pos_as_xyz
  1  'x, y, z'
loop_
 _atom_site_type_symbol
 _atom_site_label
 _atom_site_symmetry_multiplicity
 _atom_site_fract_x
 _atom_site_fract_y
 _atom_site_fract_z
 _atom_site_occupancy
  Li  Li0  1  0.25061217  0.25072160  -0.00064883  1
  Li  Li1  1  0.25067506  -0.00007331  0.49938308  1
  Li  Li2  1  0.08261247  0.41605512  0.16601731  1
  Li  Li3  1  0.33346835  0.91744488  0.16601661  1
  Li  Li4  1  0.41588888  0.33319946  0.33268377  1
  Li  Li5  1  0.74921920  -0.00013830  -0.00065127  1
  Li  Li6  1  0.33340512  0.41598973  0.66605011  1
  Li  Li7  1  0.08255463  0.66653123  0.66601585  1
  Li  Li8  1  0.00007390  0.74932467  -0.00061662  1
  Li  Li9  1  0.00013531  0.25077878  0.49934940  1
  Li  Li10  1  0.58394656  0.91738747  0.66601801  1
  Li  Li11  1  0.58401115  0.66659406  0.16605026  1
  Li  Li12  1  0.66673909  0.08265719  0.33271663  1
  Li  Li13  1  0.66680196  0.58411168  0.83268309  1
  Li  Li14  1  0.74927723  0.74938637  0.49935114  1
  Li  Li15  1  0.41594549  0.08272115  0.83268398  1
  Li  Li16  1  0.91727878  0.58405461  0.33268417  1
  Li  Li17  1  0.91734288  0.33326133  0.83271598  1
  Br  Br18  1  0.08254829  0.41607177  0.66628379  1
  Br  Br19  1  0.08244392  0.66641671  0.16623550  1
  Br  Br20  1  0.91726360  0.58411706  0.83294949  1
  Br  Br21  1  0.66682336  0.08265990  0.83297877  1
  Br  Br22  1  0.25067374  -0.00015730  -0.00035245  1
  Br  Br23  1  0.58400769  0.66651170  0.66631325  1
  Br  Br24  1  0.66691495  0.58422140  0.33290154  1
  Br  Br25  1  0.91733936  0.33317459  0.33298092  1
  Br  Br26  1  0.33358279  -0.08244451  0.66623523  1
  Br  Br27  1  0.33348816  0.41599263  0.16631152  1
  Br  Br28  1  0.41588405  0.08273730  0.33294893  1
  Br  Br29  1  0.41577635  0.33308272  0.83290318  1
  Br  Br30  1  0.00025311  0.25089093  -0.00042886  1
  Br  Br31  1  0.00016125  0.74932901  0.49964811  1
  Br  Br32  1  0.58392875  -0.08254952  0.16628436  1
  Br  Br33  1  0.25059633  0.25078439  0.49961644  1
  Br  Br34  1  0.74921617  0.74940420  -0.00038386  1
  Br  Br35  1  0.74910988  -0.00025068  0.49956954  1
