# generated using pymatgen
data_LiBr
_symmetry_space_group_name_H-M   'P 1'
_cell_length_a   11.42008927
_cell_length_b   11.41811911
_cell_length_c   8.21406197
_cell_angle_alpha   89.99222061
_cell_angle_beta   89.99706654
_cell_angle_gamma   120.00635329
_symmetry_Int_Tables_number   1
_chemical_formula_structural   LiBr
_chemical_formula_sum   'Li18 Br18'
_cell_volume   927.52336707
_cell_formula_units_Z   18
loop_
 _symmetry_equiv_pos_site_id
 _symmetry_equiv_pos_as_xyz
  1  'x, y, z'
loop_
 _atom_site_type_symbol
 _atom_site_label
 _atom_site_symmetry_multiplicity
 _atom_site_fract_x
 _atom_site_fract_y
 _atom_site_fract_z
 _atom_site_occupancy
  Li  Li0  1  0.90304501  0.56978693  0.58328441  1
  Li  Li1  1  0.00012669  0.23626122  0.75017405  1
  Li  Li2  1  0.09695658  0.43021465  0.41671504  1
  Li  Li3  1  0.66673355  0.09688983  0.58330245  1
  Li  Li4  1  0.23611756  -0.00010269  0.75016362  1
  Li  Li5  1  0.56979476  0.66675057  0.41669208  1
  Li  Li6  1  0.09670901  0.66662496  0.91658512  1
  Li  Li7  1  0.43020507  0.33324940  0.58330922  1
  Li  Li8  1  0.33326499  0.90310731  0.41669725  1
  Li  Li9  1  0.90328933  0.33337509  0.08341571  1
  Li  Li10  1  0.76388195  0.00010402  0.24983601  1
  Li  Li11  1  0.33333596  0.43004727  0.91655027  1
  Li  Li12  1  0.66666356  0.56995242  0.08344873  1
  Li  Li13  1  -0.00012719  0.76373743  0.24982555  1
  Li  Li14  1  0.56987117  0.90327674  0.91655308  1
  Li  Li15  1  0.43012984  0.09672415  0.08344650  1
  Li  Li16  1  0.76377838  0.76386094  0.75016926  1
  Li  Li17  1  0.23622064  0.23613928  0.24983123  1
  Br  Br18  1  0.20546934  -0.00007774  0.25029071  1
  Br  Br19  1  0.87221278  0.53894052  0.08335288  1
  Br  Br20  1  0.79453045  0.00007614  0.74970945  1
  Br  Br21  1  0.79439187  0.79454398  0.25023694  1
  Br  Br22  1  0.66674345  0.12782036  0.08331432  1
  Br  Br23  1  -0.00011375  0.79444532  0.74976785  1
  Br  Br24  1  0.66659426  0.53892359  0.58346666  1
  Br  Br25  1  0.00011330  0.20555296  0.25023304  1
  Br  Br26  1  0.20560827  0.20545355  0.74976179  1
  Br  Br27  1  0.33340472  0.46107670  0.41653430  1
  Br  Br28  1  0.33325521  0.87217980  0.91668724  1
  Br  Br29  1  0.46104832  0.12768375  0.58355809  1
  Br  Br30  1  0.53895293  0.87231770  0.41644265  1
  Br  Br31  1  0.12778850  0.46106095  0.91664575  1
  Br  Br32  1  0.87235547  0.33341517  0.58360239  1
  Br  Br33  1  0.12764616  0.66658638  0.41639697  1
  Br  Br34  1  0.46107734  0.33327656  0.08335141  1
  Br  Br35  1  0.53892454  0.66672481  0.91664797  1
