# generated using pymatgen
data_LiBr
_symmetry_space_group_name_H-M   'P 1'
_cell_length_a   11.44167081
_cell_length_b   11.44167106
_cell_length_c   7.34086191
_cell_angle_alpha   90.00178110
_cell_angle_beta   89.99823710
_cell_angle_gamma   120.00179242
_symmetry_Int_Tables_number   1
_chemical_formula_structural   LiBr
_chemical_formula_sum   'Li18 Br18'
_cell_volume   832.24031227
_cell_formula_units_Z   18
loop_
 _symmetry_equiv_pos_site_id
 _symmetry_equiv_pos_as_xyz
  1  'x, y, z'
loop_
 _atom_site_type_symbol
 _atom_site_label
 _atom_site_symmetry_multiplicity
 _atom_site_fract_x
 _atom_site_fract_y
 _atom_site_fract_z
 _atom_site_occupancy
  Li  Li0  1  0.13314326  0.57350382  0.44657010  1
  Li  Li1  1  0.13314389  0.55964274  0.94657153  1
  Li  Li2  1  0.75998256  0.53350868  0.61378364  1
  Li  Li3  1  0.77352683  0.24001907  0.61378350  1
  Li  Li4  1  0.09314318  0.89298980  0.77958734  1
  Li  Li5  1  0.42649893  0.55964229  0.44657181  1
  Li  Li6  1  0.77352497  0.53351039  0.11379176  1
  Li  Li7  1  0.75998078  0.22647316  0.11378386  1
  Li  Li8  1  0.44035739  0.86685615  0.44657121  1
  Li  Li9  1  0.44035824  0.57350107  0.94657112  1
  Li  Li10  1  0.46648974  0.24001707  0.11378825  1
  Li  Li11  1  0.46649137  0.22647526  0.61378649  1
  Li  Li12  1  0.10700682  0.20015251  0.77958897  1
  Li  Li13  1  0.10700999  0.90685719  0.27958640  1
  Li  Li14  1  0.42649622  0.86685695  0.94657026  1
  Li  Li15  1  0.09314323  0.20015281  0.27958755  1
  Li  Li16  1  0.79984699  0.90685643  0.77958742  1
  Li  Li17  1  0.79984757  0.89299341  0.27958932  1
  Br  Br18  1  0.90154739  0.78504148  0.04697830  1
  Br  Br19  1  0.90155119  0.11650262  0.54697298  1
  Br  Br20  1  0.54825734  0.76511099  0.21373563  1
  Br  Br21  1  0.21685512  0.45174842  0.21373421  1
  Br  Br22  1  0.88155738  0.44975809  0.38068727  1
  Br  Br23  1  0.21495380  0.11650677  0.04697690  1
  Br  Br24  1  0.21685796  0.76510735  0.71373000  1
  Br  Br25  1  0.54825136  0.78314469  0.71373393  1
  Br  Br26  1  0.88349721  0.09844873  0.04697303  1
  Br  Br27  1  0.88349313  0.78504607  0.54697684  1
  Br  Br28  1  0.23488888  0.45174254  0.71373569  1
  Br  Br29  1  0.23489247  0.78314192  0.21372998  1
  Br  Br30  1  0.55024649  0.43180021  0.38068386  1
  Br  Br31  1  0.55024181  0.11844261  0.88068758  1
  Br  Br32  1  0.21495875  0.09845261  0.54697821  1
  Br  Br33  1  0.88156256  0.43180489  0.88068923  1
  Br  Br34  1  0.56819519  0.11843738  0.38068915  1
  Br  Br35  1  0.56820002  0.44975381  0.88068412  1
