# generated using pymatgen
data_KI
_symmetry_space_group_name_H-M   'P 1'
_cell_length_a   8.82538977
_cell_length_b   7.19616688
_cell_length_c   15.14466492
_cell_angle_alpha   89.99499214
_cell_angle_beta   89.95961739
_cell_angle_gamma   144.59271458
_symmetry_Int_Tables_number   1
_chemical_formula_structural   KI
_chemical_formula_sum   'K6 I6'
_cell_volume   557.26466615
_cell_formula_units_Z   6
loop_
 _symmetry_equiv_pos_site_id
 _symmetry_equiv_pos_as_xyz
  1  'x, y, z'
loop_
 _atom_site_type_symbol
 _atom_site_label
 _atom_site_symmetry_multiplicity
 _atom_site_fract_x
 _atom_site_fract_y
 _atom_site_fract_z
 _atom_site_occupancy
  K  K0  1  -0.25030293  0.00140253  0.69430204  1
  K  K1  1  0.24772337  -0.00396564  0.86128655  1
  K  K2  1  0.75144644  0.00309016  0.36149384  1
  K  K3  1  0.24881914  0.00190855  0.52804657  1
  K  K4  1  0.75196458  0.99861318  0.02843142  1
  K  K5  1  0.25067470  0.99925265  0.19523332  1
  I  I6  1  0.74958778  0.50103787  0.36158288  1
  I  I7  1  0.25052739  0.50345722  0.52819529  1
  I  I8  1  0.75046893  0.49730201  0.02853404  1
  I  I9  1  0.25144650  0.50003639  0.19517933  1
  I  I10  1  -0.25157803  0.50006339  0.69427124  1
  I  I11  1  0.24922212  0.49780169  0.86112846  1
