# generated using pymatgen
data_LiBr
_symmetry_space_group_name_H-M   'P 1'
_cell_length_a   3.89948017
_cell_length_b   3.89890303
_cell_length_c   11.00583290
_cell_angle_alpha   89.99999022
_cell_angle_beta   90.00000631
_cell_angle_gamma   89.98934215
_symmetry_Int_Tables_number   1
_chemical_formula_structural   LiBr
_chemical_formula_sum   'Li4 Br4'
_cell_volume   167.32932451
_cell_formula_units_Z   4
loop_
 _symmetry_equiv_pos_site_id
 _symmetry_equiv_pos_as_xyz
  1  'x, y, z'
loop_
 _atom_site_type_symbol
 _atom_site_label
 _atom_site_symmetry_multiplicity
 _atom_site_fract_x
 _atom_site_fract_y
 _atom_site_fract_z
 _atom_site_occupancy
  Li  Li0  1  0.00626233  0.49895781  0.05611613  1
  Li  Li1  1  0.49889213  -0.00614815  0.80638340  1
  Li  Li2  1  -0.00626367  0.50104315  0.55611605  1
  Li  Li3  1  0.50110940  0.00614837  0.30638257  1
  Br  Br4  1  -0.00061171  0.49748528  0.80570777  1
  Br  Br5  1  0.49743339  0.00059263  0.55602357  1
  Br  Br6  1  0.00061187  0.50251402  0.30570884  1
  Br  Br7  1  0.50256626  -0.00059311  0.05602238  1
