# generated using pymatgen
data_NaI
_symmetry_space_group_name_H-M   'P 1'
_cell_length_a   13.06641332
_cell_length_b   6.52084231
_cell_length_c   6.53924409
_cell_angle_alpha   90.00030034
_cell_angle_beta   89.99998044
_cell_angle_gamma   90.00002690
_symmetry_Int_Tables_number   1
_chemical_formula_structural   NaI
_chemical_formula_sum   'Na8 I8'
_cell_volume   557.16988997
_cell_formula_units_Z   8
loop_
 _symmetry_equiv_pos_site_id
 _symmetry_equiv_pos_as_xyz
  1  'x, y, z'
loop_
 _atom_site_type_symbol
 _atom_site_label
 _atom_site_symmetry_multiplicity
 _atom_site_fract_x
 _atom_site_fract_y
 _atom_site_fract_z
 _atom_site_occupancy
  Na  Na0  1  0.87463546  0.00044367  0.75157107  1
  Na  Na1  1  0.87463565  0.49955617  0.25157969  1
  Na  Na2  1  0.37463554  0.49955644  0.24842405  1
  Na  Na3  1  0.62536427  -0.00044365  0.25158460  1
  Na  Na4  1  0.12536436  0.50044380  0.74842026  1
  Na  Na5  1  0.62536446  0.50044352  0.75157599  1
  Na  Na6  1  0.37463575  0.00044368  0.74841545  1
  Na  Na7  1  0.12536454  -0.00044364  0.24842889  1
  I  I8  1  0.62486758  0.00065609  0.75212355  1
  I  I9  1  0.62486653  0.49934406  0.25211764  1
  I  I10  1  0.12486759  0.49934377  0.24787967  1
  I  I11  1  0.87513345  -0.00065608  0.25211436  1
  I  I12  1  0.37513347  0.50065593  0.74788240  1
  I  I13  1  0.87513240  0.50065624  0.75212029  1
  I  I14  1  0.12486654  0.00065608  0.74788560  1
  I  I15  1  0.37513241  -0.00065610  0.24787650  1
