# generated using pymatgen
data_NaI
_symmetry_space_group_name_H-M   'P 1'
_cell_length_a   8.94296407
_cell_length_b   4.14869523
_cell_length_c   7.73746679
_cell_angle_alpha   90.00000353
_cell_angle_beta   90.00028343
_cell_angle_gamma   90.00000487
_symmetry_Int_Tables_number   1
_chemical_formula_structural   NaI
_chemical_formula_sum   'Na4 I4'
_cell_volume   287.07264862
_cell_formula_units_Z   4
loop_
 _symmetry_equiv_pos_site_id
 _symmetry_equiv_pos_as_xyz
  1  'x, y, z'
loop_
 _atom_site_type_symbol
 _atom_site_label
 _atom_site_symmetry_multiplicity
 _atom_site_fract_x
 _atom_site_fract_y
 _atom_site_fract_z
 _atom_site_occupancy
  Na  Na0  1  0.87519923  0.49728532  0.64417369  1
  Na  Na1  1  0.37519937  0.50271449  0.64417251  1
  Na  Na2  1  0.12479980  0.50271308  0.14417574  1
  Na  Na3  1  0.62479998  0.49728717  0.14417689  1
  I  I4  1  0.62554071  -0.00510957  0.81017796  1
  I  I5  1  0.12554043  0.00510903  0.81017795  1
  I  I6  1  0.37446039  0.00511639  0.31017489  1
  I  I7  1  0.87446010  -0.00511590  0.31017494  1
