# generated using pymatgen
data_NaI
_symmetry_space_group_name_H-M   'P 1'
_cell_length_a   8.93763033
_cell_length_b   4.15006496
_cell_length_c   7.74250180
_cell_angle_alpha   90.00016760
_cell_angle_beta   89.99998702
_cell_angle_gamma   89.99999949
_symmetry_Int_Tables_number   1
_chemical_formula_structural   NaI
_chemical_formula_sum   'Na4 I4'
_cell_volume   287.18291375
_cell_formula_units_Z   4
loop_
 _symmetry_equiv_pos_site_id
 _symmetry_equiv_pos_as_xyz
  1  'x, y, z'
loop_
 _atom_site_type_symbol
 _atom_site_label
 _atom_site_symmetry_multiplicity
 _atom_site_fract_x
 _atom_site_fract_y
 _atom_site_fract_z
 _atom_site_occupancy
  Na  Na0  1  0.37557498  0.50870097  0.89286805  1
  Na  Na1  1  0.87557411  0.49129892  0.89287272  1
  Na  Na2  1  0.62442592  0.49129846  0.39287326  1
  Na  Na3  1  0.12442503  0.50870144  0.39286860  1
  I  I4  1  0.37361559  0.01453658  0.56297150  1
  I  I5  1  0.87361576  0.98546359  0.56297075  1
  I  I6  1  0.62638421  0.98546159  0.06297080  1
  I  I7  1  0.12638441  0.01453845  0.06297155  1
