# generated using pymatgen
data_KI
_symmetry_space_group_name_H-M   'P 1'
_cell_length_a   5.07297294
_cell_length_b   14.37639431
_cell_length_c   7.18348076
_cell_angle_alpha   90.00013214
_cell_angle_beta   134.89834928
_cell_angle_gamma   90.00046426
_symmetry_Int_Tables_number   1
_chemical_formula_structural   KI
_chemical_formula_sum   'K4 I4'
_cell_volume   371.10908877
_cell_formula_units_Z   4
loop_
 _symmetry_equiv_pos_site_id
 _symmetry_equiv_pos_as_xyz
  1  'x, y, z'
loop_
 _atom_site_type_symbol
 _atom_site_label
 _atom_site_symmetry_multiplicity
 _atom_site_fract_x
 _atom_site_fract_y
 _atom_site_fract_z
 _atom_site_occupancy
  K  K0  1  -0.00541628  0.62454975  -0.25119123  1
  K  K1  1  0.00541190  0.12454976  0.75118881  1
  K  K2  1  0.00541637  0.37545025  0.25119129  1
  K  K3  1  -0.00541198  0.87545024  0.24881114  1
  I  I4  1  0.99446798  0.62528016  0.24833944  1
  I  I5  1  0.00552747  0.12528052  0.25165876  1
  I  I6  1  0.00553211  0.37471984  0.75166061  1
  I  I7  1  0.99447243  0.87471948  0.74834117  1
