# generated using pymatgen
data_LiI
_symmetry_space_group_name_H-M   'P 1'
_cell_length_a   15.50323849
_cell_length_b   15.50323964
_cell_length_c   14.70014852
_cell_angle_alpha   90.16151371
_cell_angle_beta   89.83876460
_cell_angle_gamma   120.16209675
_symmetry_Int_Tables_number   1
_chemical_formula_structural   LiI
_chemical_formula_sum   'Li36 I36'
_cell_volume   3054.80332962
_cell_formula_units_Z   36
loop_
 _symmetry_equiv_pos_site_id
 _symmetry_equiv_pos_as_xyz
  1  'x, y, z'
loop_
 _atom_site_type_symbol
 _atom_site_label
 _atom_site_symmetry_multiplicity
 _atom_site_fract_x
 _atom_site_fract_y
 _atom_site_fract_z
 _atom_site_occupancy
  Li  Li0  1  0.63486445  0.16794286  0.25787334  1
  Li  Li1  1  0.80024322  0.30212473  0.40547203  1
  Li  Li2  1  0.19940119  0.50175770  0.09359544  1
  Li  Li3  1  0.19974922  0.69786981  0.59452993  1
  Li  Li4  1  0.13394068  0.96954466  0.07295030  1
  Li  Li5  1  0.86545671  0.83502767  0.42583617  1
  Li  Li6  1  0.16497302  0.13453416  0.92583645  1
  Li  Li7  1  0.50175775  0.19940631  0.40640703  1
  Li  Li8  1  0.83502547  0.86546068  0.07416357  1
  Li  Li9  1  0.83222488  0.46754477  0.25826088  1
  Li  Li10  1  0.86605637  0.03045380  0.92704802  1
  Li  Li11  1  0.50165870  0.30141526  0.90662789  1
  Li  Li12  1  0.49834178  0.69858196  0.09337213  1
  Li  Li13  1  0.63537587  0.46691074  0.75908848  1
  Li  Li14  1  0.13454772  0.16497592  0.57416337  1
  Li  Li15  1  0.49824399  0.80059886  0.59359717  1
  Li  Li16  1  0.16777086  0.53245210  0.74173497  1
  Li  Li17  1  0.80059682  0.49824327  0.90640449  1
  Li  Li18  1  0.03128259  0.16506197  0.07444337  1
  Li  Li19  1  0.96955203  0.13393877  0.42704768  1
  Li  Li20  1  0.53308683  0.36462130  0.25908892  1
  Li  Li21  1  0.96871876  0.83493729  0.92555504  1
  Li  Li22  1  0.03045255  0.86606256  0.57295069  1
  Li  Li23  1  0.46691535  0.63538223  0.74091219  1
  Li  Li24  1  0.36512916  0.83205358  0.74212868  1
  Li  Li25  1  0.36462031  0.53308539  0.24091054  1
  Li  Li26  1  0.69858371  0.49834063  0.40662797  1
  Li  Li27  1  0.30212641  0.80024592  0.09453046  1
  Li  Li28  1  0.30141682  0.50165958  0.59336896  1
  Li  Li29  1  0.69787391  0.19975362  0.90547208  1
  Li  Li30  1  0.53245276  0.16777089  0.75826333  1
  Li  Li31  1  0.16506004  0.03128076  0.42555694  1
  Li  Li32  1  0.83494465  0.96872066  0.57444115  1
  Li  Li33  1  0.46754730  0.83222565  0.24173720  1
  Li  Li34  1  0.83205470  0.36512961  0.75787313  1
  Li  Li35  1  0.16794467  0.63486826  0.24212949  1
  I  I36  1  0.46639990  0.29467984  0.72437034  1
  I  I37  1  0.50444098  0.13261152  0.94077732  1
  I  I38  1  0.49476775  0.62869473  0.55822773  1
  I  I39  1  0.49556236  0.86738965  0.05922399  1
  I  I40  1  0.83722224  0.79963089  0.60831878  1
  I  I41  1  0.16195604  0.96285612  0.89034738  1
  I  I42  1  0.03713905  0.83804200  0.39034408  1
  I  I43  1  0.62869273  0.49476858  0.94177374  1
  I  I44  1  0.96286423  0.16195738  0.60965463  1
  I  I45  1  0.70452547  0.17172767  0.72289001  1
  I  I46  1  0.16278122  0.20036963  0.39168365  1
  I  I47  1  0.62829716  0.13296541  0.44025214  1
  I  I48  1  0.37169693  0.86703292  0.55974942  1
  I  I49  1  0.46630814  0.17126060  0.22394453  1
  I  I50  1  0.83804464  0.03714622  0.10965248  1
  I  I51  1  0.37130566  0.50523151  0.05822330  1
  I  I52  1  0.29547718  0.82827290  0.27711292  1
  I  I53  1  0.50523590  0.37131242  0.44177433  1
  I  I54  1  0.19999232  0.03765205  0.60792300  1
  I  I55  1  0.79963093  0.83722672  0.89168006  1
  I  I56  1  0.82873797  0.53368740  0.72394224  1
  I  I57  1  0.80001144  0.96234905  0.39207638  1
  I  I58  1  0.20036795  0.16277458  0.10831713  1
  I  I59  1  0.17126151  0.46631353  0.27605562  1
  I  I60  1  0.53360081  0.70531628  0.27563045  1
  I  I61  1  0.53368788  0.82874103  0.77605734  1
  I  I62  1  0.86703778  0.37170385  0.94025225  1
  I  I63  1  0.13260678  0.50443531  0.55922159  1
  I  I64  1  0.13296376  0.62829989  0.05975015  1
  I  I65  1  0.86739491  0.49556502  0.44077801  1
  I  I66  1  0.82826782  0.29547503  0.22289027  1
  I  I67  1  0.03765495  0.19999318  0.89207395  1
  I  I68  1  0.96234490  0.80000932  0.10792197  1
  I  I69  1  0.17172688  0.70452154  0.77711185  1
  I  I70  1  0.70531844  0.53360123  0.22436912  1
  I  I71  1  0.29468408  0.46640108  0.77562838  1
