# generated using pymatgen
data_LiBr
_symmetry_space_group_name_H-M   'P 1'
_cell_length_a   14.51260181
_cell_length_b   14.51260231
_cell_length_c   14.51260191
_cell_angle_alpha   89.99998404
_cell_angle_beta   90.00001882
_cell_angle_gamma   89.99999890
_symmetry_Int_Tables_number   1
_chemical_formula_structural   LiBr
_chemical_formula_sum   'Li48 Br48'
_cell_volume   3056.58062879
_cell_formula_units_Z   48
loop_
 _symmetry_equiv_pos_site_id
 _symmetry_equiv_pos_as_xyz
  1  'x, y, z'
loop_
 _atom_site_type_symbol
 _atom_site_label
 _atom_site_symmetry_multiplicity
 _atom_site_fract_x
 _atom_site_fract_y
 _atom_site_fract_z
 _atom_site_occupancy
  Li  Li0  1  0.74982506  0.37461782  0.00003797  1
  Li  Li1  1  0.00003752  0.25017491  0.62538206  1
  Li  Li2  1  0.99996240  0.74982506  0.62538240  1
  Li  Li3  1  0.00003759  0.74982505  0.37461782  1
  Li  Li4  1  0.99996249  0.25017492  0.37461772  1
  Li  Li5  1  0.12538223  0.00003772  0.75017483  1
  Li  Li6  1  0.87461782  0.99996236  0.75017540  1
  Li  Li7  1  0.24982494  0.62538216  0.49996206  1
  Li  Li8  1  0.24982496  0.37461781  0.50003816  1
  Li  Li9  1  0.50003758  0.25017497  0.12538205  1
  Li  Li10  1  0.49996244  0.75017501  0.37461778  1
  Li  Li11  1  0.62538223  0.50003765  0.75017481  1
  Li  Li12  1  0.49996240  0.24982505  0.62538238  1
  Li  Li13  1  0.50003756  0.24982507  0.37461783  1
  Li  Li14  1  0.50003746  0.75017488  0.62538206  1
  Li  Li15  1  0.37461783  0.49996239  0.75017538  1
  Li  Li16  1  0.62538219  0.49996240  0.24982481  1
  Li  Li17  1  0.12538218  0.49996232  0.74982479  1
  Li  Li18  1  0.87461779  0.50003770  0.74982501  1
  Li  Li19  1  0.25017499  0.62538222  0.00003731  1
  Li  Li20  1  0.74982500  0.87461781  0.50003801  1
  Li  Li21  1  0.12538217  0.99996230  0.24982473  1
  Li  Li22  1  0.87461778  0.00003765  0.24982505  1
  Li  Li23  1  0.25017501  0.12538221  0.50003739  1
  Li  Li24  1  0.25017499  0.87461779  0.49996237  1
  Li  Li25  1  0.74982505  0.12538220  0.49996228  1
  Li  Li26  1  0.37461778  0.50003759  0.24982505  1
  Li  Li27  1  0.75017500  0.62538222  0.50003736  1
  Li  Li28  1  0.75017499  0.37461777  0.49996239  1
  Li  Li29  1  0.49996239  0.74982502  0.12538239  1
  Li  Li30  1  0.50003758  0.74982508  0.87461782  1
  Li  Li31  1  0.49996247  0.25017496  0.87461777  1
  Li  Li32  1  0.62538223  0.00003767  0.25017479  1
  Li  Li33  1  0.37461785  0.99996237  0.25017540  1
  Li  Li34  1  0.62538215  0.99996231  0.74982477  1
  Li  Li35  1  0.37461780  0.00003767  0.74982503  1
  Li  Li36  1  0.25017498  0.37461776  0.99996242  1
  Li  Li37  1  0.74982502  0.62538217  0.99996226  1
  Li  Li38  1  0.75017501  0.12538218  0.00003732  1
  Li  Li39  1  0.75017494  0.87461777  0.99996246  1
  Li  Li40  1  0.24982501  0.12538217  0.99996225  1
  Li  Li41  1  0.24982505  0.87461781  0.00003798  1
  Li  Li42  1  0.00003766  0.75017499  0.12538205  1
  Li  Li43  1  0.99996241  0.24982501  0.12538236  1
  Li  Li44  1  0.00003753  0.24982511  0.87461781  1
  Li  Li45  1  0.99996234  0.75017500  0.87461775  1
  Li  Li46  1  0.12538223  0.50003761  0.25017474  1
  Li  Li47  1  0.87461785  0.49996241  0.25017536  1
  Br  Br48  1  0.00006709  0.12483055  0.25001091  1
  Br  Br49  1  0.25001095  -0.00006706  0.87516941  1
  Br  Br50  1  0.74998904  0.00006702  0.87516940  1
  Br  Br51  1  0.25001097  0.00006705  0.12483067  1
  Br  Br52  1  0.74998909  -0.00006705  0.12483053  1
  Br  Br53  1  0.37516940  0.25001089  0.49993304  1
  Br  Br54  1  0.62483059  0.74998911  0.49993299  1
  Br  Br55  1  0.50006708  0.87516943  0.24998915  1
  Br  Br56  1  0.50006710  0.12483058  0.75001095  1
  Br  Br57  1  0.75001092  -0.00006707  0.37516942  1
  Br  Br58  1  0.24998910  0.49993295  0.12483050  1
  Br  Br59  1  0.87516941  0.75001088  0.49993299  1
  Br  Br60  1  0.24998906  0.50006703  0.87516939  1
  Br  Br61  1  0.75001095  0.50006705  0.12483067  1
  Br  Br62  1  0.75001095  0.49993295  0.87516940  1
  Br  Br63  1  0.12483060  0.24998909  0.49993297  1
  Br  Br64  1  0.87516941  0.24998913  0.50006691  1
  Br  Br65  1  0.37516940  0.24998911  0.00006693  1
  Br  Br66  1  0.62483057  0.75001086  0.00006716  1
  Br  Br67  1  -0.00006707  0.87516939  0.25001080  1
  Br  Br68  1  0.00006710  0.62483059  0.75001096  1
  Br  Br69  1  0.37516935  0.74998909  0.50006688  1
  Br  Br70  1  0.62483058  0.25001088  0.50006714  1
  Br  Br71  1  -0.00006710  0.37516940  0.75001076  1
  Br  Br72  1  -0.00006703  0.62483062  0.24998910  1
  Br  Br73  1  0.00006706  0.37516942  0.24998913  1
  Br  Br74  1  0.12483057  0.75001089  0.50006715  1
  Br  Br75  1  0.49993289  0.87516937  0.75001075  1
  Br  Br76  1  0.49993292  0.12483063  0.24998912  1
  Br  Br77  1  0.24998904  0.00006710  0.37516938  1
  Br  Br78  1  0.75001095  0.00006708  0.62483069  1
  Br  Br79  1  0.24998908  -0.00006710  0.62483053  1
  Br  Br80  1  0.87516942  0.25001084  -0.00006702  1
  Br  Br81  1  0.12483062  0.74998914  -0.00006715  1
  Br  Br82  1  0.87516938  0.74998914  0.00006702  1
  Br  Br83  1  0.12483057  0.25001087  0.00006713  1
  Br  Br84  1  -0.00006711  0.12483063  0.74998915  1
  Br  Br85  1  0.00006707  0.87516946  0.74998916  1
  Br  Br86  1  0.49993296  0.37516940  0.25001079  1
  Br  Br87  1  0.49993292  0.62483061  0.74998915  1
  Br  Br88  1  0.50006707  0.37516943  0.74998916  1
  Br  Br89  1  0.50006705  0.62483058  0.25001097  1
  Br  Br90  1  0.25001090  0.49993276  0.37516939  1
  Br  Br91  1  0.74998909  0.50006709  0.37516940  1
  Br  Br92  1  0.25001093  0.50006720  0.62483067  1
  Br  Br93  1  0.74998908  0.49993291  0.62483052  1
  Br  Br94  1  0.37516942  0.75001085  -0.00006701  1
  Br  Br95  1  0.62483064  0.24998912  -0.00006707  1
