# generated using pymatgen
data_LiI
_symmetry_space_group_name_H-M   'P 1'
_cell_length_a   10.72387428
_cell_length_b   4.97028079
_cell_length_c   4.75918088
_cell_angle_alpha   89.99964767
_cell_angle_beta   90.00072544
_cell_angle_gamma   90.00010466
_symmetry_Int_Tables_number   1
_chemical_formula_structural   LiI
_chemical_formula_sum   'Li4 I4'
_cell_volume   253.66751209
_cell_formula_units_Z   4
loop_
 _symmetry_equiv_pos_site_id
 _symmetry_equiv_pos_as_xyz
  1  'x, y, z'
loop_
 _atom_site_type_symbol
 _atom_site_label
 _atom_site_symmetry_multiplicity
 _atom_site_fract_x
 _atom_site_fract_y
 _atom_site_fract_z
 _atom_site_occupancy
  Li  Li0  1  0.61918589  0.93144820  0.49743524  1
  Li  Li1  1  0.38081468  0.43144670  0.00256464  1
  Li  Li2  1  0.88081386  0.06855307  -0.00256523  1
  Li  Li3  1  0.11918511  0.56855242  0.50256541  1
  I  I4  1  0.62584889  0.22937886  -0.00200909  1
  I  I5  1  0.37415158  0.72937770  0.50201111  1
  I  I6  1  0.87415131  0.77062206  0.49798823  1
  I  I7  1  0.12584868  0.27062099  0.00200969  1
