# generated using pymatgen
data_LiBr
_symmetry_space_group_name_H-M   'P 1'
_cell_length_a   3.91834972
_cell_length_b   3.91824374
_cell_length_c   10.79691610
_cell_angle_alpha   89.99968966
_cell_angle_beta   89.99997426
_cell_angle_gamma   90.00000588
_symmetry_Int_Tables_number   1
_chemical_formula_structural   LiBr
_chemical_formula_sum   'Li4 Br4'
_cell_volume   165.76558490
_cell_formula_units_Z   4
loop_
 _symmetry_equiv_pos_site_id
 _symmetry_equiv_pos_as_xyz
  1  'x, y, z'
loop_
 _atom_site_type_symbol
 _atom_site_label
 _atom_site_symmetry_multiplicity
 _atom_site_fract_x
 _atom_site_fract_y
 _atom_site_fract_z
 _atom_site_occupancy
  Li  Li0  1  -0.00211958  0.49919492  0.15047826  1
  Li  Li1  1  0.49921078  0.00210626  0.90047595  1
  Li  Li2  1  0.00212101  0.50080592  0.65047793  1
  Li  Li3  1  0.50078877  -0.00210772  0.40047598  1
  Br  Br4  1  0.00085605  0.49980700  0.90018862  1
  Br  Br5  1  0.49980336  -0.00085976  0.65018860  1
  Br  Br6  1  -0.00085658  0.50019309  0.40018859  1
  Br  Br7  1  0.50019619  0.00086028  0.15018871  1
