# generated using pymatgen
data_LiI
_symmetry_space_group_name_H-M   'P 1'
_cell_length_a   8.19310412
_cell_length_b   8.19310178
_cell_length_c   4.34438822
_cell_angle_alpha   89.99996936
_cell_angle_beta   89.99999976
_cell_angle_gamma   89.99995929
_symmetry_Int_Tables_number   1
_chemical_formula_structural   LiI
_chemical_formula_sum   'Li4 I4'
_cell_volume   291.62546998
_cell_formula_units_Z   4
loop_
 _symmetry_equiv_pos_site_id
 _symmetry_equiv_pos_as_xyz
  1  'x, y, z'
loop_
 _atom_site_type_symbol
 _atom_site_label
 _atom_site_symmetry_multiplicity
 _atom_site_fract_x
 _atom_site_fract_y
 _atom_site_fract_z
 _atom_site_occupancy
  Li  Li0  1  0.65998343  0.07196042  0.86669998  1
  Li  Li1  1  0.07196003  0.34001632  0.61669985  1
  Li  Li2  1  0.34001662  0.92803959  0.36670076  1
  Li  Li3  1  0.92803991  0.65998368  0.11669900  1
  I  I4  1  0.14491138  0.67356298  0.60785990  1
  I  I5  1  0.67356356  0.85508903  0.35786138  1
  I  I6  1  0.85508855  0.32643708  0.10786003  1
  I  I7  1  0.32643651  0.14491091  0.85786157  1
