# generated using pymatgen
data_NaI
_symmetry_space_group_name_H-M   'P 1'
_cell_length_a   12.63007529
_cell_length_b   12.63081078
_cell_length_c   5.42979259
_cell_angle_alpha   89.91439724
_cell_angle_beta   90.06935946
_cell_angle_gamma   90.00155573
_symmetry_Int_Tables_number   1
_chemical_formula_structural   NaI
_chemical_formula_sum   'Na8 I8'
_cell_volume   866.20284499
_cell_formula_units_Z   8
loop_
 _symmetry_equiv_pos_site_id
 _symmetry_equiv_pos_as_xyz
  1  'x, y, z'
loop_
 _atom_site_type_symbol
 _atom_site_label
 _atom_site_symmetry_multiplicity
 _atom_site_fract_x
 _atom_site_fract_y
 _atom_site_fract_z
 _atom_site_occupancy
  Na  Na0  1  0.20024787  0.36557583  0.00087247  1
  Na  Na1  1  0.86555506  0.29972020  0.49939891  1
  Na  Na2  1  0.79974874  0.63443772  0.00088921  1
  Na  Na3  1  0.63443990  0.20027476  -0.00116334  1
  Na  Na4  1  0.36555603  0.79971695  -0.00060104  1
  Na  Na5  1  0.29974883  0.13443622  0.50088863  1
  Na  Na6  1  0.13444044  0.70027048  0.49883697  1
  Na  Na7  1  0.70024659  0.86557444  0.50087298  1
  I  I8  1  0.28984651  0.89201709  0.49903329  1
  I  I9  1  0.39201080  0.21016580  0.00065719  1
  I  I10  1  0.71016696  0.10798172  0.49969208  1
  I  I11  1  0.10798414  0.28983337  0.50061944  1
  I  I12  1  0.89201088  0.71016286  0.50065781  1
  I  I13  1  0.21016779  0.60798114  -0.00030781  1
  I  I14  1  0.60798371  0.78983151  0.00061996  1
  I  I15  1  0.78984575  0.39201993  -0.00096676  1
