# generated using pymatgen
data_LiBr
_symmetry_space_group_name_H-M   'P 1'
_cell_length_a   7.61851983
_cell_length_b   7.61856554
_cell_length_c   6.00695150
_cell_angle_alpha   89.99933421
_cell_angle_beta   90.00021548
_cell_angle_gamma   120.00437351
_symmetry_Int_Tables_number   1
_chemical_formula_structural   LiBr
_chemical_formula_sum   'Li6 Br6'
_cell_volume   301.93219655
_cell_formula_units_Z   6
loop_
 _symmetry_equiv_pos_site_id
 _symmetry_equiv_pos_as_xyz
  1  'x, y, z'
loop_
 _atom_site_type_symbol
 _atom_site_label
 _atom_site_symmetry_multiplicity
 _atom_site_fract_x
 _atom_site_fract_y
 _atom_site_fract_z
 _atom_site_occupancy
  Li  Li0  1  0.99927544  0.66597618  0.79648503  1
  Li  Li1  1  0.33401965  0.33330347  0.79646699  1
  Li  Li2  1  0.66597957  0.66669882  0.20353038  1
  Li  Li3  1  0.33330428  0.99927755  0.20353486  1
  Li  Li4  1  0.00072744  0.33402400  0.20352816  1
  Li  Li5  1  0.66669353  0.00072071  0.79647548  1
  Br  Br6  1  0.99948440  0.66671429  0.24529500  1
  Br  Br7  1  0.33326640  0.33275742  0.24529462  1
  Br  Br8  1  0.66673693  0.66724299  0.75469793  1
  Br  Br9  1  0.33277650  0.99950455  0.75469935  1
  Br  Br10  1  0.00051300  0.33328345  0.75469876  1
  Br  Br11  1  0.66722286  0.00049657  0.24529345  1
