# generated using pymatgen
data_LiBr
_symmetry_space_group_name_H-M   'P 1'
_cell_length_a   11.44066393
_cell_length_b   11.44063873
_cell_length_c   7.96759202
_cell_angle_alpha   90.00301000
_cell_angle_beta   89.99707281
_cell_angle_gamma   120.00509061
_symmetry_Int_Tables_number   1
_chemical_formula_structural   LiBr
_chemical_formula_sum   'Li18 Br18'
_cell_volume   903.10227999
_cell_formula_units_Z   18
loop_
 _symmetry_equiv_pos_site_id
 _symmetry_equiv_pos_as_xyz
  1  'x, y, z'
loop_
 _atom_site_type_symbol
 _atom_site_label
 _atom_site_symmetry_multiplicity
 _atom_site_fract_x
 _atom_site_fract_y
 _atom_site_fract_z
 _atom_site_occupancy
  Li  Li0  1  0.40520320  0.20316670  0.78385601  1
  Li  Li1  1  0.40519201  0.20200972  0.28386655  1
  Li  Li2  1  0.13008028  0.26138284  0.95049737  1
  Li  Li3  1  0.13131421  0.86995482  0.95049961  1
  Li  Li4  1  0.46344792  0.53526657  0.11729363  1
  Li  Li5  1  0.79681639  0.20202917  0.78386377  1
  Li  Li6  1  0.13133499  0.26139076  0.45051169  1
  Li  Li7  1  0.13004534  0.86868636  0.45050032  1
  Li  Li8  1  0.79799066  0.59480814  0.78386537  1
  Li  Li9  1  0.79797098  0.20318310  0.28386331  1
  Li  Li10  1  0.73861615  0.86991857  0.45049858  1
  Li  Li11  1  0.73860976  0.86866473  0.95051284  1
  Li  Li12  1  0.46472495  0.92817957  0.11730111  1
  Li  Li13  1  0.46473331  0.53655142  0.61729334  1
  Li  Li14  1  0.79683292  0.59479644  0.28385551  1
  Li  Li15  1  0.46346789  0.92818661  0.61730043  1
  Li  Li16  1  0.07181325  0.53653266  0.11730124  1
  Li  Li17  1  0.07182052  0.53527502  0.61730182  1
  Br  Br18  1  0.90742789  0.45333975  0.85789926  1
  Br  Br19  1  0.90742651  0.45408306  0.35790176  1
  Br  Br20  1  0.87997530  0.75926888  0.02452139  1
  Br  Br21  1  0.87929028  0.12002517  0.02450689  1
  Br  Br22  1  0.21330217  0.78739216  0.19118740  1
  Br  Br23  1  0.54665584  0.45409208  0.85787911  1
  Br  Br24  1  0.87929011  0.75925926  0.52451790  1
  Br  Br25  1  0.87997457  0.12070968  0.52450743  1
  Br  Br26  1  0.54591656  0.09257359  0.85790231  1
  Br  Br27  1  0.54590823  0.45334431  0.35787934  1
  Br  Br28  1  0.24073119  0.12002555  0.52452034  1
  Br  Br29  1  0.24074131  0.12071083  0.02451676  1
  Br  Br30  1  0.21260860  0.42591871  0.19120211  1
  Br  Br31  1  0.21260885  0.78669830  0.69118740  1
  Br  Br32  1  0.54666052  0.09257229  0.35790047  1
  Br  Br33  1  0.21332074  0.42593365  0.69120694  1
  Br  Br34  1  0.57406577  0.78667887  0.19120634  1
  Br  Br35  1  0.57408082  0.78739066  0.69120182  1
