# generated using pymatgen
data_LiI
_symmetry_space_group_name_H-M   'P 1'
_cell_length_a   7.87356498
_cell_length_b   4.71420844
_cell_length_c   7.46427139
_cell_angle_alpha   89.99998066
_cell_angle_beta   90.00033903
_cell_angle_gamma   89.99999134
_symmetry_Int_Tables_number   1
_chemical_formula_structural   LiI
_chemical_formula_sum   'Li4 I4'
_cell_volume   277.05603733
_cell_formula_units_Z   4
loop_
 _symmetry_equiv_pos_site_id
 _symmetry_equiv_pos_as_xyz
  1  'x, y, z'
loop_
 _atom_site_type_symbol
 _atom_site_label
 _atom_site_symmetry_multiplicity
 _atom_site_fract_x
 _atom_site_fract_y
 _atom_site_fract_z
 _atom_site_occupancy
  Li  Li0  1  0.59774743  0.49904902  0.10541492  1
  Li  Li1  1  0.40225308  -0.00095113  0.39458489  1
  Li  Li2  1  0.90225451  0.50094779  0.60541987  1
  Li  Li3  1  0.09774516  0.00094812  0.89458008  1
  I  I4  1  0.07125294  0.00008804  0.51832430  1
  I  I5  1  0.92874706  0.50008819  -0.01832446  1
  I  I6  1  0.42874728  -0.00008486  0.01832231  1
  I  I7  1  0.57125255  0.49991483  0.48167810  1
