# generated using pymatgen
data_LiBr
_symmetry_space_group_name_H-M   'P 1'
_cell_length_a   6.62522243
_cell_length_b   6.62526361
_cell_length_c   10.66100228
_cell_angle_alpha   90.03247122
_cell_angle_beta   90.03003745
_cell_angle_gamma   120.01218961
_symmetry_Int_Tables_number   1
_chemical_formula_structural   LiBr
_chemical_formula_sum   'Li9 Br9'
_cell_volume   405.20862224
_cell_formula_units_Z   9
loop_
 _symmetry_equiv_pos_site_id
 _symmetry_equiv_pos_as_xyz
  1  'x, y, z'
loop_
 _atom_site_type_symbol
 _atom_site_label
 _atom_site_symmetry_multiplicity
 _atom_site_fract_x
 _atom_site_fract_y
 _atom_site_fract_z
 _atom_site_occupancy
  Li  Li0  1  0.00023670  0.33291735  0.37156013  1
  Li  Li1  1  0.00010835  0.33403155  0.03823693  1
  Li  Li2  1  0.33386111  -0.00022554  0.03822522  1
  Li  Li3  1  0.33362918  0.00084182  0.70489273  1
  Li  Li4  1  0.66716078  0.66624583  0.70489376  1
  Li  Li5  1  -0.00095924  0.33271632  0.70489552  1
  Li  Li6  1  0.66697775  0.66727114  0.37155920  1
  Li  Li7  1  0.66585451  0.66602577  0.03822976  1
  Li  Li8  1  0.33262644  -0.00034136  0.37155811  1
  Br  Br9  1  0.33358660  0.33325370  0.51480232  1
  Br  Br10  1  0.00017141  0.66708779  0.18146620  1
  Br  Br11  1  0.66695618  -0.00006188  0.18147150  1
  Br  Br12  1  0.33352576  0.33372709  0.84813785  1
  Br  Br13  1  0.00027914  0.66657661  0.84813760  1
  Br  Br14  1  0.66637294  -0.00017871  0.84814247  1
  Br  Br15  1  0.66687518  0.00041500  0.51480712  1
  Br  Br16  1  0.33302400  0.33315389  0.18146603  1
  Br  Br17  1  -0.00028680  0.66654362  0.51480215  1
