# generated using pymatgen
data_LiBr
_symmetry_space_group_name_H-M   'P 1'
_cell_length_a   8.26754411
_cell_length_b   8.28250250
_cell_length_c   6.69994440
_cell_angle_alpha   90.00001402
_cell_angle_beta   90.00000473
_cell_angle_gamma   89.99991235
_symmetry_Int_Tables_number   1
_chemical_formula_structural   LiBr
_chemical_formula_sum   'Li8 Br8'
_cell_volume   458.78509004
_cell_formula_units_Z   8
loop_
 _symmetry_equiv_pos_site_id
 _symmetry_equiv_pos_as_xyz
  1  'x, y, z'
loop_
 _atom_site_type_symbol
 _atom_site_label
 _atom_site_symmetry_multiplicity
 _atom_site_fract_x
 _atom_site_fract_y
 _atom_site_fract_z
 _atom_site_occupancy
  Li  Li0  1  0.64052253  0.13861824  0.14702230  1
  Li  Li1  1  0.14052744  0.36139178  0.14702197  1
  Li  Li2  1  0.35947185  0.13860787  0.64702311  1
  Li  Li3  1  0.35947962  0.86138444  0.14702322  1
  Li  Li4  1  0.64052424  0.86138935  0.64702850  1
  Li  Li5  1  0.85947507  0.63860958  0.14702496  1
  Li  Li6  1  0.85947876  0.36138223  0.64701611  1
  Li  Li7  1  0.14051993  0.63861578  0.64702343  1
  Br  Br8  1  0.34377065  0.84235573  0.52709366  1
  Br  Br9  1  0.84376387  0.65763631  0.52709546  1
  Br  Br10  1  0.65623481  0.84236318  0.02709743  1
  Br  Br11  1  0.65622670  0.15764131  0.52709322  1
  Br  Br12  1  0.34376710  0.15763812  0.02709365  1
  Br  Br13  1  0.15623547  0.34236373  0.52709252  1
  Br  Br14  1  0.15622761  0.65764565  0.02709319  1
  Br  Br15  1  0.84377436  0.34235669  0.02708966  1
