# generated using pymatgen
data_KI
_symmetry_space_group_name_H-M   'P 1'
_cell_length_a   7.18785831
_cell_length_b   5.08605921
_cell_length_c   10.17058288
_cell_angle_alpha   89.99999765
_cell_angle_beta   89.99999721
_cell_angle_gamma   89.99999905
_symmetry_Int_Tables_number   1
_chemical_formula_structural   KI
_chemical_formula_sum   'K4 I4'
_cell_volume   371.81487697
_cell_formula_units_Z   4
loop_
 _symmetry_equiv_pos_site_id
 _symmetry_equiv_pos_as_xyz
  1  'x, y, z'
loop_
 _atom_site_type_symbol
 _atom_site_label
 _atom_site_symmetry_multiplicity
 _atom_site_fract_x
 _atom_site_fract_y
 _atom_site_fract_z
 _atom_site_occupancy
  K  K0  1  0.24980231  0.49950000  0.62437691  1
  K  K1  1  0.75019768  -0.00050001  0.87562304  1
  K  K2  1  0.25019769  0.50049996  0.12437694  1
  K  K3  1  0.74980232  0.00049997  0.37562310  1
  I  I4  1  0.74996480  0.49985276  0.12525996  1
  I  I5  1  0.25003521  -0.00014724  0.37474020  1
  I  I6  1  0.75003519  0.50014728  0.62525980  1
  I  I7  1  0.24996480  0.00014728  0.87474005  1
