# generated using pymatgen
data_LiBr
_symmetry_space_group_name_H-M   'P 1'
_cell_length_a   7.89464575
_cell_length_b   7.89421736
_cell_length_c   6.52741191
_cell_angle_alpha   89.99908467
_cell_angle_beta   90.00872575
_cell_angle_gamma   89.99990061
_symmetry_Int_Tables_number   1
_chemical_formula_structural   LiBr
_chemical_formula_sum   'Li8 Br8'
_cell_volume   406.80168353
_cell_formula_units_Z   8
loop_
 _symmetry_equiv_pos_site_id
 _symmetry_equiv_pos_as_xyz
  1  'x, y, z'
loop_
 _atom_site_type_symbol
 _atom_site_label
 _atom_site_symmetry_multiplicity
 _atom_site_fract_x
 _atom_site_fract_y
 _atom_site_fract_z
 _atom_site_occupancy
  Li  Li0  1  0.24182925  0.25687220  0.50004086  1
  Li  Li1  1  0.24312056  0.25817996  0.00001411  1
  Li  Li2  1  0.74180860  0.24312306  0.00000225  1
  Li  Li3  1  0.75686824  0.74181962  0.00005703  1
  Li  Li4  1  0.25817424  0.75686965  -0.00005877  1
  Li  Li5  1  0.75818814  0.74312972  0.49999383  1
  Li  Li6  1  0.74313633  0.24182095  0.49994661  1
  Li  Li7  1  0.25687773  0.75817590  0.50000405  1
  Br  Br8  1  0.50765793  0.75032022  0.74991111  1
  Br  Br9  1  0.74967878  0.99227746  0.24991011  1
  Br  Br10  1  0.00778754  0.74968313  0.75009202  1
  Br  Br11  1  0.25032027  0.00774045  0.24990672  1
  Br  Br12  1  0.99232027  0.25032492  0.75008832  1
  Br  Br13  1  0.49223424  0.24967883  0.74990909  1
  Br  Br14  1  0.24967829  0.50770729  0.25009219  1
  Br  Br15  1  0.75031961  0.49227667  0.25009046  1
