# generated using pymatgen
data_LiI
_symmetry_space_group_name_H-M   'P 1'
_cell_length_a   12.60944138
_cell_length_b   12.60939981
_cell_length_c   8.58992322
_cell_angle_alpha   90.00111735
_cell_angle_beta   89.99883989
_cell_angle_gamma   120.00306626
_symmetry_Int_Tables_number   1
_chemical_formula_structural   LiI
_chemical_formula_sum   'Li18 I18'
_cell_volume   1182.76034812
_cell_formula_units_Z   18
loop_
 _symmetry_equiv_pos_site_id
 _symmetry_equiv_pos_as_xyz
  1  'x, y, z'
loop_
 _atom_site_type_symbol
 _atom_site_label
 _atom_site_symmetry_multiplicity
 _atom_site_fract_x
 _atom_site_fract_y
 _atom_site_fract_z
 _atom_site_occupancy
  Li  Li0  1  0.12982048  0.86822946  0.33572012  1
  Li  Li1  1  0.12982046  0.26157703  0.83573785  1
  Li  Li2  1  0.46502911  0.53680902  0.50241503  1
  Li  Li3  1  0.07176691  0.53496166  0.50241659  1
  Li  Li4  1  0.79840020  0.59489756  0.66910170  1
  Li  Li5  1  0.13176475  0.26157844  0.33575134  1
  Li  Li6  1  0.07177330  0.53679704  0.00240360  1
  Li  Li7  1  0.46503670  0.92822712  0.00242444  1
  Li  Li8  1  0.73842896  0.87018449  0.33574220  1
  Li  Li9  1  0.73842802  0.86824336  0.83575701  1
  Li  Li10  1  0.46319291  0.53497172  0.00241390  1
  Li  Li11  1  0.46320218  0.92822374  0.50241265  1
  Li  Li12  1  0.40510819  0.20350835  0.66909353  1
  Li  Li13  1  0.40510259  0.20159484  0.16910375  1
  Li  Li14  1  0.13176711  0.87017823  0.83572060  1
  Li  Li15  1  0.79840212  0.20350878  0.16908400  1
  Li  Li16  1  0.79648825  0.20159896  0.66908311  1
  Li  Li17  1  0.79648678  0.59488887  0.16909104  1
  I  I18  1  0.88126721  0.12042906  0.40985216  1
  I  I19  1  0.88126963  0.76084700  0.90987472  1
  I  I20  1  0.21293847  0.78543294  0.57649050  1
  I  I21  1  0.57250088  0.78706069  0.57654664  1
  I  I22  1  0.54630888  0.09416276  0.74317345  1
  I  I23  1  0.87958020  0.76084955  0.40988807  1
  I  I24  1  0.57250219  0.78543971  0.07653150  1
  I  I25  1  0.21294312  0.42750553  0.07654152  1
  I  I26  1  0.23915108  0.11872665  0.40987703  1
  I  I27  1  0.23915045  0.12042035  0.90988572  1
  I  I28  1  0.21456809  0.78706019  0.07649438  1
  I  I29  1  0.21456387  0.42750435  0.57652742  1
  I  I30  1  0.90583548  0.45215383  0.74314617  1
  I  I31  1  0.90583417  0.45368978  0.24316351  1
  I  I32  1  0.87957327  0.11873694  0.90985165  1
  I  I33  1  0.54630239  0.45214900  0.24314384  1
  I  I34  1  0.54784636  0.45369339  0.74314204  1
  I  I35  1  0.54784521  0.09415962  0.24315534  1
