# generated using pymatgen
data_LiBr
_symmetry_space_group_name_H-M   'P 1'
_cell_length_a   15.83586629
_cell_length_b   15.83590154
_cell_length_c   15.83600030
_cell_angle_alpha   90.00006820
_cell_angle_beta   90.00005948
_cell_angle_gamma   89.99996426
_symmetry_Int_Tables_number   1
_chemical_formula_structural   LiBr
_chemical_formula_sum   'Li48 Br48'
_cell_volume   3971.27644589
_cell_formula_units_Z   48
loop_
 _symmetry_equiv_pos_site_id
 _symmetry_equiv_pos_as_xyz
  1  'x, y, z'
loop_
 _atom_site_type_symbol
 _atom_site_label
 _atom_site_symmetry_multiplicity
 _atom_site_fract_x
 _atom_site_fract_y
 _atom_site_fract_z
 _atom_site_occupancy
  Li  Li0  1  0.39464728  0.93944035  0.09395031  1
  Li  Li1  1  0.18944023  0.64464610  0.34394636  1
  Li  Li2  1  0.89464456  0.56055972  0.90605181  1
  Li  Li3  1  0.81055858  0.85535428  0.34394544  1
  Li  Li4  1  0.10535652  0.93944238  0.90605336  1
  Li  Li5  1  0.15605377  0.18944000  0.35535403  1
  Li  Li6  1  0.15605431  0.81056059  0.14464551  1
  Li  Li7  1  0.31056072  0.64464486  0.65605614  1
  Li  Li8  1  0.89464691  0.43943936  0.59394682  1
  Li  Li9  1  0.68944158  0.14464801  0.84394646  1
  Li  Li10  1  0.09394476  0.60535570  0.56056149  1
  Li  Li11  1  0.85535242  0.34394820  0.81055900  1
  Li  Li12  1  0.90605476  0.89464096  0.56055946  1
  Li  Li13  1  0.14464696  0.84394820  0.68944182  1
  Li  Li14  1  0.85535013  0.65605136  0.68944159  1
  Li  Li15  1  0.59394514  0.89463977  0.43944000  1
  Li  Li16  1  0.14464385  0.15605297  0.81055659  1
  Li  Li17  1  0.64465329  0.65604917  0.31055989  1
  Li  Li18  1  0.90605617  0.10535989  0.93944013  1
  Li  Li19  1  0.18944043  0.35535164  0.15605294  1
  Li  Li20  1  0.93943881  0.09394469  0.39464247  1
  Li  Li21  1  0.06055994  0.59394510  0.10535605  1
  Li  Li22  1  0.84394523  0.68943950  0.14464165  1
  Li  Li23  1  0.43943917  0.40605199  0.60535516  1
  Li  Li24  1  0.34394689  0.81055935  0.85535670  1
  Li  Li25  1  0.06055952  0.40605377  0.39464246  1
  Li  Li26  1  0.40605437  0.60535637  0.43943900  1
  Li  Li27  1  0.68944094  0.85535613  0.65605573  1
  Li  Li28  1  0.10535634  0.06055781  0.59394453  1
  Li  Li29  1  0.39464905  0.06055792  0.40605131  1
  Li  Li30  1  0.31055870  0.35535247  0.84394627  1
  Li  Li31  1  0.60535029  0.43944084  0.40605249  1
  Li  Li32  1  0.65605258  0.68943927  0.85535630  1
  Li  Li33  1  0.65605538  0.31055981  0.64464449  1
  Li  Li34  1  0.56056119  0.09394381  0.60535669  1
  Li  Li35  1  0.34394604  0.18943953  0.64464543  1
  Li  Li36  1  0.60535137  0.56056191  0.09394774  1
  Li  Li37  1  0.81055873  0.14464962  0.15605295  1
  Li  Li38  1  0.93943835  0.90605671  0.10535135  1
  Li  Li39  1  0.84394403  0.31055916  0.35536078  1
  Li  Li40  1  0.56056172  0.90605543  0.89464714  1
  Li  Li41  1  0.43943937  0.59394628  0.89464308  1
  Li  Li42  1  0.35535710  0.15605280  0.18944052  1
  Li  Li43  1  0.40605225  0.39464414  0.06055767  1
  Li  Li44  1  0.64464780  0.34394929  0.18944012  1
  Li  Li45  1  0.59394504  0.10536001  0.06056123  1
  Li  Li46  1  0.35535232  0.84394746  0.31056113  1
  Li  Li47  1  0.09394631  0.39464338  0.93943959  1
  Br  Br48  1  0.43418345  0.13978952  0.53052589  1
  Br  Br49  1  0.38979098  0.68418355  0.78052591  1
  Br  Br50  1  0.93418412  0.36020984  0.46947576  1
  Br  Br51  1  0.61020993  0.81581827  0.78052714  1
  Br  Br52  1  0.06581792  0.13978789  0.46947271  1
  Br  Br53  1  0.71947516  0.38979286  0.31581947  1
  Br  Br54  1  0.71947636  0.61020397  0.18418083  1
  Br  Br55  1  0.11020898  0.68418265  0.21947491  1
  Br  Br56  1  0.93418470  0.63979181  0.03052200  1
  Br  Br57  1  0.88978632  0.18418331  0.28052672  1
  Br  Br58  1  0.53052721  0.56582170  0.36020871  1
  Br  Br59  1  0.81581571  0.78052410  0.61021065  1
  Br  Br60  1  0.46947409  0.93417637  0.36021091  1
  Br  Br61  1  0.18418135  0.28052284  0.88978927  1
  Br  Br62  1  0.81581772  0.21947792  0.88979320  1
  Br  Br63  1  0.03052699  0.93417997  0.63978793  1
  Br  Br64  1  0.18418403  0.71947543  0.61021189  1
  Br  Br65  1  0.68418248  0.21947798  0.11020769  1
  Br  Br66  1  0.46947784  0.06581845  0.13979425  1
  Br  Br67  1  0.38978989  0.31581660  0.71947508  1
  Br  Br68  1  0.13978809  0.53052606  0.43418187  1
  Br  Br69  1  0.86021153  0.03053215  0.06581744  1
  Br  Br70  1  0.28052532  0.88979124  0.18418516  1
  Br  Br71  1  0.63979113  0.96947212  0.56581586  1
  Br  Br72  1  0.78052211  0.61020667  0.81581870  1
  Br  Br73  1  0.86021090  0.96947198  0.43418267  1
  Br  Br74  1  0.96947210  0.56581812  0.63979243  1
  Br  Br75  1  0.88978948  0.81581951  0.21947174  1
  Br  Br76  1  0.06581802  0.86020979  0.03052429  1
  Br  Br77  1  0.43418262  0.86020899  0.96947652  1
  Br  Br78  1  0.11020972  0.31581784  0.28052515  1
  Br  Br79  1  0.56581556  0.63979151  0.96947495  1
  Br  Br80  1  0.21947717  0.88979218  0.81581823  1
  Br  Br81  1  0.21947433  0.11020870  0.68418120  1
  Br  Br82  1  0.36020830  0.53052463  0.56581720  1
  Br  Br83  1  0.78052579  0.38979124  0.68418013  1
  Br  Br84  1  0.56581684  0.36020668  0.53052471  1
  Br  Br85  1  0.61020965  0.18418310  0.71947517  1
  Br  Br86  1  0.13979038  0.46947206  0.06581855  1
  Br  Br87  1  0.28052779  0.11021156  0.31581753  1
  Br  Br88  1  0.36020748  0.46947454  0.93417956  1
  Br  Br89  1  0.63978994  0.03053013  0.93418477  1
  Br  Br90  1  0.31581735  0.71947583  0.38979054  1
  Br  Br91  1  0.96947474  0.43418264  0.86020781  1
  Br  Br92  1  0.68418315  0.78052247  0.38979027  1
  Br  Br93  1  0.03052428  0.06581878  0.86020738  1
  Br  Br94  1  0.31581712  0.28052211  0.11020697  1
  Br  Br95  1  0.53052263  0.43418429  0.13979315  1
