# generated using pymatgen
data_LiI
_symmetry_space_group_name_H-M   'P 1'
_cell_length_a   10.88619291
_cell_length_b   10.88797825
_cell_length_c   4.39836565
_cell_angle_alpha   90.00034353
_cell_angle_beta   89.99978788
_cell_angle_gamma   120.00405632
_symmetry_Int_Tables_number   1
_chemical_formula_structural   LiI
_chemical_formula_sum   'Li6 I6'
_cell_volume   451.46852793
_cell_formula_units_Z   6
loop_
 _symmetry_equiv_pos_site_id
 _symmetry_equiv_pos_as_xyz
  1  'x, y, z'
loop_
 _atom_site_type_symbol
 _atom_site_label
 _atom_site_symmetry_multiplicity
 _atom_site_fract_x
 _atom_site_fract_y
 _atom_site_fract_z
 _atom_site_occupancy
  Li  Li0  1  0.31664884  0.46001351  0.27508710  1
  Li  Li1  1  0.85676296  0.31653040  0.60823085  1
  Li  Li2  1  0.14323614  0.68346893  0.60822961  1
  Li  Li3  1  0.46000874  0.14338432  0.94139923  1
  Li  Li4  1  0.53999195  0.85661672  0.94139744  1
  Li  Li5  1  0.68335102  0.53998566  0.27509531  1
  I  I6  1  0.42952662  0.28309436  0.41799678  1
  I  I7  1  0.14653088  0.42974540  0.75160940  1
  I  I8  1  0.85346926  0.57025443  0.75161619  1
  I  I9  1  0.28306897  0.85363467  0.08464321  1
  I  I10  1  0.71693082  0.14636549  0.08464384  1
  I  I11  1  0.57047380  0.71690612  0.41798769  1
