# generated using pymatgen
data_LiBr
_symmetry_space_group_name_H-M   'P 1'
_cell_length_a   7.20667223
_cell_length_b   4.19388952
_cell_length_c   6.75893951
_cell_angle_alpha   90.00003478
_cell_angle_beta   90.00005935
_cell_angle_gamma   90.00001266
_symmetry_Int_Tables_number   1
_chemical_formula_structural   LiBr
_chemical_formula_sum   'Li4 Br4'
_cell_volume   204.28210111
_cell_formula_units_Z   4
loop_
 _symmetry_equiv_pos_site_id
 _symmetry_equiv_pos_as_xyz
  1  'x, y, z'
loop_
 _atom_site_type_symbol
 _atom_site_label
 _atom_site_symmetry_multiplicity
 _atom_site_fract_x
 _atom_site_fract_y
 _atom_site_fract_z
 _atom_site_occupancy
  Li  Li0  1  0.41630154  0.25078389  0.43358134  1
  Li  Li1  1  0.91630720  0.74921708  0.43358073  1
  Li  Li2  1  0.58369208  0.74921697  0.93357819  1
  Li  Li3  1  0.08369820  0.25078326  0.93358035  1
  Br  Br4  1  0.08166927  0.24901607  0.55585281  1
  Br  Br5  1  0.58167062  0.75098371  0.55585020  1
  Br  Br6  1  -0.08167028  0.75098310  0.05585192  1
  Br  Br7  1  0.41833137  0.24901592  0.05585359  1
