# generated using pymatgen
data_LiBr
_symmetry_space_group_name_H-M   'P 1'
_cell_length_a   11.54210881
_cell_length_b   11.54209691
_cell_length_c   7.92081288
_cell_angle_alpha   89.99702996
_cell_angle_beta   90.00312378
_cell_angle_gamma   120.00020730
_symmetry_Int_Tables_number   1
_chemical_formula_structural   LiBr
_chemical_formula_sum   'Li18 Br18'
_cell_volume   913.83830429
_cell_formula_units_Z   18
loop_
 _symmetry_equiv_pos_site_id
 _symmetry_equiv_pos_as_xyz
  1  'x, y, z'
loop_
 _atom_site_type_symbol
 _atom_site_label
 _atom_site_symmetry_multiplicity
 _atom_site_fract_x
 _atom_site_fract_y
 _atom_site_fract_z
 _atom_site_occupancy
  Li  Li0  1  0.53578207  0.46285496  0.54951809  1
  Li  Li1  1  0.53578697  0.07294048  0.04953090  1
  Li  Li2  1  0.87051767  0.13092223  0.71623790  1
  Li  Li3  1  0.26038719  0.12948094  0.71624612  1
  Li  Li4  1  0.20385102  0.40628463  0.88293319  1
  Li  Li5  1  0.53714794  0.07294022  0.54952911  1
  Li  Li6  1  0.26037873  0.13090689  0.21624838  1
  Li  Li7  1  0.87052033  0.73961304  0.21624580  1
  Li  Li8  1  0.92706107  0.46421352  0.54953116  1
  Li  Li9  1  0.92705977  0.46285338  0.04952950  1
  Li  Li10  1  0.86907791  0.12948141  0.21623693  1
  Li  Li11  1  0.86909121  0.73961993  0.71624740  1
  Li  Li12  1  0.59370973  0.79756880  0.88293286  1
  Li  Li13  1  0.59371334  0.79614989  0.38293275  1
  Li  Li14  1  0.53714567  0.46421829  0.04952071  1
  Li  Li15  1  0.20384829  0.79757869  0.38292470  1
  Li  Li16  1  0.20241986  0.79615116  0.88292443  1
  Li  Li17  1  0.20242829  0.40628894  0.38293202  1
  Br  Br18  1  0.45328099  0.54586352  0.31025706  1
  Br  Br19  1  0.45328024  0.90739810  0.81022818  1
  Br  Br20  1  0.78744517  0.21337044  0.47692283  1
  Br  Br21  1  0.42594599  0.21257064  0.47688575  1
  Br  Br22  1  0.12075938  0.24070909  0.64358497  1
  Br  Br23  1  0.45412066  0.90739409  0.31022662  1
  Br  Br24  1  0.42594108  0.21336992  0.97688945  1
  Br  Br25  1  0.78742997  0.57405580  0.97688633  1
  Br  Br26  1  0.09260127  0.54671900  0.31022761  1
  Br  Br27  1  0.09260714  0.54588097  0.81022487  1
  Br  Br28  1  0.78662864  0.21255479  0.97692262  1
  Br  Br29  1  0.78663046  0.57406030  0.47689038  1
  Br  Br30  1  0.75928648  0.88004681  0.64358870  1
  Br  Br31  1  0.75929138  0.87924054  0.14358306  1
  Br  Br32  1  0.45413756  0.54671775  0.81025677  1
  Br  Br33  1  0.12077652  0.88004317  0.14362184  1
  Br  Br34  1  0.11995670  0.87922450  0.64362099  1
  Br  Br35  1  0.11995330  0.24071314  0.14358931  1
