# generated using pymatgen
data_LiI
_symmetry_space_group_name_H-M   'P 1'
_cell_length_a   9.17804407
_cell_length_b   9.17807763
_cell_length_c   7.15725820
_cell_angle_alpha   89.99913379
_cell_angle_beta   90.00025935
_cell_angle_gamma   89.99985080
_symmetry_Int_Tables_number   1
_chemical_formula_structural   LiI
_chemical_formula_sum   'Li8 I8'
_cell_volume   602.90453513
_cell_formula_units_Z   8
loop_
 _symmetry_equiv_pos_site_id
 _symmetry_equiv_pos_as_xyz
  1  'x, y, z'
loop_
 _atom_site_type_symbol
 _atom_site_label
 _atom_site_symmetry_multiplicity
 _atom_site_fract_x
 _atom_site_fract_y
 _atom_site_fract_z
 _atom_site_occupancy
  Li  Li0  1  0.86530137  0.36507567  0.60194705  1
  Li  Li1  1  0.63492776  0.13469260  0.89805065  1
  Li  Li2  1  0.13469259  0.63492725  0.60195109  1
  Li  Li3  1  0.63491898  0.86530756  0.39805616  1
  Li  Li4  1  0.36507548  0.13470281  0.39805674  1
  Li  Li5  1  0.13470302  0.36507421  0.10194448  1
  Li  Li6  1  0.36507548  0.86530144  0.89805783  1
  Li  Li7  1  0.86530981  0.63491947  0.10193888  1
  I  I8  1  0.15768972  0.34253351  0.49110261  1
  I  I9  1  0.65748003  0.84229636  0.00887600  1
  I  I10  1  0.84229745  0.65748134  0.49113284  1
  I  I11  1  0.65747332  0.15768841  0.50889424  1
  I  I12  1  0.34252338  0.84230851  0.50888470  1
  I  I13  1  0.84230971  0.34252703  -0.00889507  1
  I  I14  1  0.34253279  0.15768912  0.00889666  1
  I  I15  1  0.15768909  0.65747470  -0.00889487  1
