# generated using pymatgen
data_LiBr
_symmetry_space_group_name_H-M   'P 1'
_cell_length_a   5.58708187
_cell_length_b   5.58702632
_cell_length_c   13.05630559
_cell_angle_alpha   89.99998568
_cell_angle_beta   90.00002037
_cell_angle_gamma   89.99989633
_symmetry_Int_Tables_number   1
_chemical_formula_structural   LiBr
_chemical_formula_sum   'Li8 Br8'
_cell_volume   407.55484356
_cell_formula_units_Z   8
loop_
 _symmetry_equiv_pos_site_id
 _symmetry_equiv_pos_as_xyz
  1  'x, y, z'
loop_
 _atom_site_type_symbol
 _atom_site_label
 _atom_site_symmetry_multiplicity
 _atom_site_fract_x
 _atom_site_fract_y
 _atom_site_fract_z
 _atom_site_occupancy
  Li  Li0  1  0.98720933  0.50047643  0.62495545  1
  Li  Li1  1  0.50047456  0.98720588  0.37504367  1
  Li  Li2  1  0.48721199  -0.00047496  0.62504319  1
  Li  Li3  1  0.49952338  0.01279439  0.87504373  1
  Li  Li4  1  0.51278986  0.00047537  0.12504426  1
  Li  Li5  1  0.01279090  0.49952579  0.12495729  1
  Li  Li6  1  0.00047557  0.51279177  0.87495616  1
  Li  Li7  1  -0.00047553  0.48720724  0.37495640  1
  Br  Br8  1  0.75570296  0.25641965  -0.00017233  1
  Br  Br9  1  0.25642021  0.75570141  0.00017116  1
  Br  Br10  1  0.25570188  0.24358009  0.25017171  1
  Br  Br11  1  0.74358036  0.24429766  0.50017215  1
  Br  Br12  1  0.74429706  0.75642066  0.75017332  1
  Br  Br13  1  0.24429770  0.74357920  0.49982890  1
  Br  Br14  1  0.75642053  0.74429699  0.24982734  1
  Br  Br15  1  0.24357925  0.25570243  0.74982761  1
