# generated using pymatgen
data_LiBr
_symmetry_space_group_name_H-M   'P 1'
_cell_length_a   6.46403873
_cell_length_b   6.67063384
_cell_length_c   3.86127173
_cell_angle_alpha   90.00001400
_cell_angle_beta   90.00000173
_cell_angle_gamma   89.99999646
_symmetry_Int_Tables_number   1
_chemical_formula_structural   LiBr
_chemical_formula_sum   'Li4 Br4'
_cell_volume   166.49508506
_cell_formula_units_Z   4
loop_
 _symmetry_equiv_pos_site_id
 _symmetry_equiv_pos_as_xyz
  1  'x, y, z'
loop_
 _atom_site_type_symbol
 _atom_site_label
 _atom_site_symmetry_multiplicity
 _atom_site_fract_x
 _atom_site_fract_y
 _atom_site_fract_z
 _atom_site_occupancy
  Li  Li0  1  0.50048938  0.75216831  0.73606097  1
  Li  Li1  1  0.00048934  0.74783161  0.73606191  1
  Li  Li2  1  0.49951065  0.24783168  0.23606221  1
  Li  Li3  1  -0.00048936  0.25216840  0.23606117  1
  Br  Br4  1  0.74950315  0.41628666  0.73583331  1
  Br  Br5  1  0.24950311  0.08371333  0.73583467  1
  Br  Br6  1  0.25049687  0.58371333  0.23583467  1
  Br  Br7  1  0.75049686  0.91628667  0.23583332  1
