# generated using pymatgen
data_LiBr
_symmetry_space_group_name_H-M   'P 1'
_cell_length_a   14.68618517
_cell_length_b   14.24036899
_cell_length_c   3.85454194
_cell_angle_alpha   90.00022036
_cell_angle_beta   90.00010759
_cell_angle_gamma   90.00446798
_symmetry_Int_Tables_number   1
_chemical_formula_structural   LiBr
_chemical_formula_sum   'Li16 Br16'
_cell_volume   806.12616306
_cell_formula_units_Z   16
loop_
 _symmetry_equiv_pos_site_id
 _symmetry_equiv_pos_as_xyz
  1  'x, y, z'
loop_
 _atom_site_type_symbol
 _atom_site_label
 _atom_site_symmetry_multiplicity
 _atom_site_fract_x
 _atom_site_fract_y
 _atom_site_fract_z
 _atom_site_occupancy
  Li  Li0  1  0.16459998  0.07674590  0.33723067  1
  Li  Li1  1  0.83540111  0.92325455  0.33722453  1
  Li  Li2  1  0.08535042  0.32676986  0.58756382  1
  Li  Li3  1  0.33540054  0.92325517  0.83722469  1
  Li  Li4  1  0.58534990  0.32676760  0.08756276  1
  Li  Li5  1  0.41465197  0.17323227  0.58756884  1
  Li  Li6  1  0.66459998  0.07674677  0.83723263  1
  Li  Li7  1  0.58535101  0.82676830  0.58755966  1
  Li  Li8  1  0.41464883  0.67322997  0.08757203  1
  Li  Li9  1  0.66459883  0.57674722  0.33723180  1
  Li  Li10  1  0.33539905  0.42325515  0.33722317  1
  Li  Li11  1  0.08534905  0.82676767  0.08755782  1
  Li  Li12  1  0.91464957  0.17323210  0.08756887  1
  Li  Li13  1  0.91464980  0.67323207  0.58757485  1
  Li  Li14  1  0.16460177  0.57674475  0.83723154  1
  Li  Li15  1  0.83540024  0.42325409  0.83722625  1
  Br  Br16  1  0.67159843  0.40788578  0.58683529  1
  Br  Br17  1  0.32840086  0.59211373  0.58684054  1
  Br  Br18  1  0.57839646  0.65789060  0.83654010  1
  Br  Br19  1  0.82840085  0.59211340  0.08684087  1
  Br  Br20  1  0.07839642  0.65788992  0.33654040  1
  Br  Br21  1  0.92160230  0.84210928  0.83653559  1
  Br  Br22  1  0.17159883  0.40788531  0.08683716  1
  Br  Br23  1  0.07839492  0.15788962  0.83654058  1
  Br  Br24  1  0.92160269  0.34210956  0.33653479  1
  Br  Br25  1  0.17159998  0.90788579  0.58683337  1
  Br  Br26  1  0.82840044  0.09211508  0.58683843  1
  Br  Br27  1  0.57839799  0.15788993  0.33654123  1
  Br  Br28  1  0.42160429  0.84210943  0.33653490  1
  Br  Br29  1  0.42160345  0.34210991  0.83653522  1
  Br  Br30  1  0.67159986  0.90788483  0.08683425  1
  Br  Br31  1  0.32840018  0.09211438  0.08683905  1
