# generated using pymatgen
data_LiI
_symmetry_space_group_name_H-M   'P 1'
_cell_length_a   6.76819739
_cell_length_b   5.95543159
_cell_length_c   5.65243052
_cell_angle_alpha   90.00003267
_cell_angle_beta   89.93741572
_cell_angle_gamma   89.99966910
_symmetry_Int_Tables_number   1
_chemical_formula_structural   LiI
_chemical_formula_sum   'Li4 I4'
_cell_volume   227.83541410
_cell_formula_units_Z   4
loop_
 _symmetry_equiv_pos_site_id
 _symmetry_equiv_pos_as_xyz
  1  'x, y, z'
loop_
 _atom_site_type_symbol
 _atom_site_label
 _atom_site_symmetry_multiplicity
 _atom_site_fract_x
 _atom_site_fract_y
 _atom_site_fract_z
 _atom_site_occupancy
  Li  Li0  1  0.61983168  0.75377890  0.20812282  1
  Li  Li1  1  0.11983346  0.25377731  0.20811796  1
  Li  Li2  1  0.61983189  0.24621676  0.70812475  1
  Li  Li3  1  0.11983464  0.74622543  0.70812266  1
  I  I4  1  0.70071282  0.74905317  0.70833582  1
  I  I5  1  0.20071214  0.24905480  0.70833279  1
  I  I6  1  0.70071206  0.25094700  0.20833622  1
  I  I7  1  0.20071193  0.75094663  0.20833434  1
