# generated using pymatgen
data_LiBr
_symmetry_space_group_name_H-M   'P 1'
_cell_length_a   10.70243566
_cell_length_b   11.79920253
_cell_length_c   8.06643374
_cell_angle_alpha   89.99987612
_cell_angle_beta   90.00001194
_cell_angle_gamma   89.97591723
_symmetry_Int_Tables_number   1
_chemical_formula_structural   LiBr
_chemical_formula_sum   'Li16 Br16'
_cell_volume   1018.63082424
_cell_formula_units_Z   16
loop_
 _symmetry_equiv_pos_site_id
 _symmetry_equiv_pos_as_xyz
  1  'x, y, z'
loop_
 _atom_site_type_symbol
 _atom_site_label
 _atom_site_symmetry_multiplicity
 _atom_site_fract_x
 _atom_site_fract_y
 _atom_site_fract_z
 _atom_site_occupancy
  Li  Li0  1  0.50028371  0.63822478  -0.00033222  1
  Li  Li1  1  0.49971319  0.36177525  -0.00033743  1
  Li  Li2  1  0.74945975  0.88819261  0.24937213  1
  Li  Li3  1  -0.00028485  0.36177469  0.49966517  1
  Li  Li4  1  0.24945940  0.88819468  0.74936974  1
  Li  Li5  1  0.75054104  0.61180539  0.24937075  1
  Li  Li6  1  0.00028586  0.63822506  0.49966439  1
  Li  Li7  1  0.24945935  0.38819351  0.24937021  1
  Li  Li8  1  0.75054074  0.11180672  0.74937137  1
  Li  Li9  1  0.00028404  0.13822567  -0.00033339  1
  Li  Li10  1  -0.00028567  0.86177603  -0.00033696  1
  Li  Li11  1  0.74945896  0.38819421  0.74937145  1
  Li  Li12  1  0.25054212  0.61180677  0.74936848  1
  Li  Li13  1  0.25054220  0.11180588  0.24936835  1
  Li  Li14  1  0.50028598  0.13822401  0.49966399  1
  Li  Li15  1  0.49971535  0.86177511  0.49966605  1
  Br  Br16  1  0.06544328  0.24954876  0.25001888  1
  Br  Br17  1  0.93455716  0.75044900  0.25001471  1
  Br  Br18  1  0.18450112  0.49958045  0.49986776  1
  Br  Br19  1  0.43455722  0.75045167  0.75002038  1
  Br  Br20  1  0.68449877  0.49958002  -0.00013057  1
  Br  Br21  1  0.31550024  0.00041882  0.49986670  1
  Br  Br22  1  0.56544255  0.24955028  0.75001504  1
  Br  Br23  1  0.68450112  -0.00042011  0.49987002  1
  Br  Br24  1  0.31549818  0.50041900  -0.00013260  1
  Br  Br25  1  0.56544302  0.74954902  0.25001925  1
  Br  Br26  1  0.43455739  0.25045046  0.25001680  1
  Br  Br27  1  0.18449977  -0.00041829  -0.00013355  1
  Br  Br28  1  0.81549868  0.00041993  -0.00012942  1
  Br  Br29  1  0.81550043  0.50041965  0.49986983  1
  Br  Br30  1  0.06544341  0.74955024  0.75001598  1
  Br  Br31  1  0.93455652  0.25045074  0.75001847  1
