# generated using pymatgen
data_LiBr
_symmetry_space_group_name_H-M   'P 1'
_cell_length_a   11.01585897
_cell_length_b   5.50495492
_cell_length_c   5.51259687
_cell_angle_alpha   89.99999836
_cell_angle_beta   90.00000057
_cell_angle_gamma   90.00000002
_symmetry_Int_Tables_number   1
_chemical_formula_structural   LiBr
_chemical_formula_sum   'Li8 Br8'
_cell_volume   334.29383584
_cell_formula_units_Z   8
loop_
 _symmetry_equiv_pos_site_id
 _symmetry_equiv_pos_as_xyz
  1  'x, y, z'
loop_
 _atom_site_type_symbol
 _atom_site_label
 _atom_site_symmetry_multiplicity
 _atom_site_fract_x
 _atom_site_fract_y
 _atom_site_fract_z
 _atom_site_occupancy
  Li  Li0  1  0.37513306  0.49988632  0.24860990  1
  Li  Li1  1  0.37513386  0.00011354  0.74860944  1
  Li  Li2  1  0.87513299  0.50011354  0.25138822  1
  Li  Li3  1  0.12486622  0.00011323  0.24861075  1
  Li  Li4  1  0.62486621  -0.00011343  0.25139128  1
  Li  Li5  1  0.12486686  0.49988650  0.74861107  1
  Li  Li6  1  0.87513377  -0.00011333  0.75138882  1
  Li  Li7  1  0.62486691  0.50011368  0.75139081  1
  Br  Br8  1  0.12499417  0.00014923  0.74876487  1
  Br  Br9  1  0.12499400  0.49985074  0.24876494  1
  Br  Br10  1  0.62499418  -0.00014923  0.75123554  1
  Br  Br11  1  0.37500604  0.49985079  0.74876490  1
  Br  Br12  1  0.87500600  0.50014923  0.75123456  1
  Br  Br13  1  0.37500589  0.00014923  0.24876481  1
  Br  Br14  1  0.62499401  0.50014922  0.25123543  1
  Br  Br15  1  0.87500585  -0.00014925  0.25123468  1
