# generated using pymatgen
data_LiBr
_symmetry_space_group_name_H-M   'P 1'
_cell_length_a   3.89270133
_cell_length_b   3.89270304
_cell_length_c   9.51391246
_cell_angle_alpha   89.99988020
_cell_angle_beta   90.00008188
_cell_angle_gamma   120.00055512
_symmetry_Int_Tables_number   1
_chemical_formula_structural   LiBr
_chemical_formula_sum   'Li3 Br3'
_cell_volume   124.85033497
_cell_formula_units_Z   3
loop_
 _symmetry_equiv_pos_site_id
 _symmetry_equiv_pos_as_xyz
  1  'x, y, z'
loop_
 _atom_site_type_symbol
 _atom_site_label
 _atom_site_symmetry_multiplicity
 _atom_site_fract_x
 _atom_site_fract_y
 _atom_site_fract_z
 _atom_site_occupancy
  Li  Li0  1  0.66444847  -0.00137355  0.45793921  1
  Li  Li1  1  0.00137952  0.66582300  0.12460554  1
  Li  Li2  1  0.33417424  0.33554883  0.79127433  1
  Br  Br3  1  0.66642034  -0.00050590  0.95759859  1
  Br  Br4  1  0.00050511  0.66692945  0.62426562  1
  Br  Br5  1  0.33307232  0.33357816  0.29093116  1
