# generated using pymatgen
data_LiBr
_symmetry_space_group_name_H-M   'P 1'
_cell_length_a   11.51453418
_cell_length_b   11.51453560
_cell_length_c   7.95140251
_cell_angle_alpha   90.00142756
_cell_angle_beta   89.99861939
_cell_angle_gamma   120.00550407
_symmetry_Int_Tables_number   1
_chemical_formula_structural   LiBr
_chemical_formula_sum   'Li18 Br18'
_cell_volume   912.94177489
_cell_formula_units_Z   18
loop_
 _symmetry_equiv_pos_site_id
 _symmetry_equiv_pos_as_xyz
  1  'x, y, z'
loop_
 _atom_site_type_symbol
 _atom_site_label
 _atom_site_symmetry_multiplicity
 _atom_site_fract_x
 _atom_site_fract_y
 _atom_site_fract_z
 _atom_site_occupancy
  Li  Li0  1  0.53578260  0.46262861  0.20221724  1
  Li  Li1  1  0.53580328  0.07314447  0.70216866  1
  Li  Li2  1  0.87070912  0.13088271  0.36888139  1
  Li  Li3  1  0.26016319  0.12929259  0.36884806  1
  Li  Li4  1  0.20403686  0.40650239  0.53551657  1
  Li  Li5  1  0.53737002  0.07317360  0.20218107  1
  Li  Li6  1  0.26018695  0.13086245  0.86883130  1
  Li  Li7  1  0.87070512  0.73983539  0.86885122  1
  Li  Li8  1  0.92685334  0.46419908  0.20216489  1
  Li  Li9  1  0.92683140  0.46262953  0.70218256  1
  Li  Li10  1  0.86911723  0.12929252  0.86888202  1
  Li  Li11  1  0.86913978  0.73981417  0.36883069  1
  Li  Li12  1  0.59351997  0.79752842  0.53549956  1
  Li  Li13  1  0.59349701  0.79596130  0.03551498  1
  Li  Li14  1  0.53737383  0.46421485  0.70221304  1
  Li  Li15  1  0.20403847  0.79754947  0.03554883  1
  Li  Li16  1  0.20245078  0.79595937  0.53554804  1
  Li  Li17  1  0.20247249  0.40647893  0.03550023  1
  Br  Br18  1  0.12118392  0.24097831  0.29676549  1
  Br  Br19  1  0.12118158  0.88022346  0.79673222  1
  Br  Br20  1  0.09235447  0.54548641  0.46343262  1
  Br  Br21  1  0.45310333  0.90761509  0.46340955  1
  Br  Br22  1  0.42571794  0.21355974  0.63007392  1
  Br  Br23  1  0.75905211  0.88022658  0.29674438  1
  Br  Br24  1  0.45310983  0.54548537  0.96339776  1
  Br  Br25  1  0.09238636  0.54689639  0.96341197  1
  Br  Br26  1  0.11977584  0.87881843  0.29673178  1
  Br  Br27  1  0.11977158  0.24094738  0.79674473  1
  Br  Br28  1  0.45451408  0.90764578  0.96343465  1
  Br  Br29  1  0.45451236  0.54688887  0.46339935  1
  Br  Br30  1  0.78644323  0.21215085  0.63006840  1
  Br  Br31  1  0.78643590  0.57428143  0.13007653  1
  Br  Br32  1  0.75902055  0.87881763  0.79676458  1
  Br  Br33  1  0.42568618  0.21215549  0.13009604  1
  Br  Br34  1  0.78784896  0.57431506  0.63009745  1
  Br  Br35  1  0.78785038  0.21355788  0.13006869  1
