# generated using pymatgen
data_LiI
_symmetry_space_group_name_H-M   'P 1'
_cell_length_a   8.94010669
_cell_length_b   9.05625551
_cell_length_c   7.37818601
_cell_angle_alpha   89.99975778
_cell_angle_beta   90.00002768
_cell_angle_gamma   89.99983497
_symmetry_Int_Tables_number   1
_chemical_formula_structural   LiI
_chemical_formula_sum   'Li8 I8'
_cell_volume   597.36664431
_cell_formula_units_Z   8
loop_
 _symmetry_equiv_pos_site_id
 _symmetry_equiv_pos_as_xyz
  1  'x, y, z'
loop_
 _atom_site_type_symbol
 _atom_site_label
 _atom_site_symmetry_multiplicity
 _atom_site_fract_x
 _atom_site_fract_y
 _atom_site_fract_z
 _atom_site_occupancy
  Li  Li0  1  0.36333146  0.86253442  0.31971529  1
  Li  Li1  1  0.86333014  0.63746456  0.31971646  1
  Li  Li2  1  0.63666350  0.86253121  0.81971716  1
  Li  Li3  1  0.63667120  0.13746475  0.31971529  1
  Li  Li4  1  0.36333455  0.13746907  0.81971503  1
  Li  Li5  1  0.13666804  0.36253767  0.31971476  1
  Li  Li6  1  0.13666474  0.63746926  0.81971595  1
  Li  Li7  1  0.86333634  0.36252939  0.81971624  1
  I  I8  1  0.83893783  0.65602955  0.94415617  1
  I  I9  1  0.33893745  0.84396975  0.94415416  1
  I  I10  1  0.16105482  0.65603641  0.44415587  1
  I  I11  1  0.16106171  0.34397022  0.94415543  1
  I  I12  1  0.83894539  0.34396247  0.44415498  1
  I  I13  1  0.66106096  0.15602996  0.94415503  1
  I  I14  1  0.66105637  0.84396399  0.44415643  1
  I  I15  1  0.33894552  0.15603732  0.44415431  1
