# generated using pymatgen
data_LiBr
_symmetry_space_group_name_H-M   'P 1'
_cell_length_a   3.89157361
_cell_length_b   3.89163417
_cell_length_c   9.52258298
_cell_angle_alpha   90.00195745
_cell_angle_beta   89.99854083
_cell_angle_gamma   120.00288239
_symmetry_Int_Tables_number   1
_chemical_formula_structural   LiBr
_chemical_formula_sum   'Li3 Br3'
_cell_volume   124.89068298
_cell_formula_units_Z   3
loop_
 _symmetry_equiv_pos_site_id
 _symmetry_equiv_pos_as_xyz
  1  'x, y, z'
loop_
 _atom_site_type_symbol
 _atom_site_label
 _atom_site_symmetry_multiplicity
 _atom_site_fract_x
 _atom_site_fract_y
 _atom_site_fract_z
 _atom_site_occupancy
  Li  Li0  1  0.66787087  0.00241101  0.52217398  1
  Li  Li1  1  -0.00245224  0.66543230  0.85550453  1
  Li  Li2  1  0.33458714  0.33213642  0.18884506  1
  Br  Br3  1  0.66760650  0.99804183  0.02266025  1
  Br  Br4  1  0.00197312  0.66957788  0.35599311  1
  Br  Br5  1  0.33041461  0.33240057  0.68933078  1
