# generated using pymatgen
data_NaI
_symmetry_space_group_name_H-M   'P 1'
_cell_length_a   15.01252509
_cell_length_b   15.01255338
_cell_length_c   6.46751650
_cell_angle_alpha   89.99993679
_cell_angle_beta   90.00002717
_cell_angle_gamma   120.26016500
_symmetry_Int_Tables_number   1
_chemical_formula_structural   NaI
_chemical_formula_sum   'Na12 I12'
_cell_volume   1259.01807067
_cell_formula_units_Z   12
loop_
 _symmetry_equiv_pos_site_id
 _symmetry_equiv_pos_as_xyz
  1  'x, y, z'
loop_
 _atom_site_type_symbol
 _atom_site_label
 _atom_site_symmetry_multiplicity
 _atom_site_fract_x
 _atom_site_fract_y
 _atom_site_fract_z
 _atom_site_occupancy
  Na  Na0  1  0.88113978  0.33655134  0.67219698  1
  Na  Na1  1  0.53487247  0.87606949  0.67175986  1
  Na  Na2  1  0.46045160  0.33924829  0.16722489  1
  Na  Na3  1  0.12392878  0.46511437  0.17177149  1
  Na  Na4  1  0.87607133  0.53487510  0.17175700  1
  Na  Na5  1  0.33654646  0.88114710  0.17219925  1
  Na  Na6  1  0.53954991  0.66075360  0.16721330  1
  Na  Na7  1  0.66345303  0.11885362  0.17218507  1
  Na  Na8  1  0.66075143  0.53954861  0.66721089  1
  Na  Na9  1  0.11886018  0.66344892  0.67218121  1
  Na  Na10  1  0.46512377  0.12393330  0.67176344  1
  Na  Na11  1  0.33924843  0.46045312  0.66722948  1
  I  I12  1  0.67345667  0.55022328  0.16816839  1
  I  I13  1  0.12069446  0.67494439  0.17197769  1
  I  I14  1  0.87302395  0.54348637  0.67137233  1
  I  I15  1  0.32504813  0.87931445  0.67198801  1
  I  I16  1  0.67494854  0.12069037  0.67198068  1
  I  I17  1  0.55022363  0.67345723  0.66817039  1
  I  I18  1  0.12697482  0.45651270  0.67138849  1
  I  I19  1  0.44977466  0.32654528  0.66818007  1
  I  I20  1  0.45652205  0.12698094  0.17138558  1
  I  I21  1  0.32654678  0.44977803  0.16818171  1
  I  I22  1  0.87930938  0.32504911  0.17198702  1
  I  I23  1  0.54347977  0.87302098  0.17137511  1
