# generated using pymatgen
data_LiBr
_symmetry_space_group_name_H-M   'P 1'
_cell_length_a   11.90891038
_cell_length_b   11.90899844
_cell_length_c   7.30977187
_cell_angle_alpha   90.01505234
_cell_angle_beta   89.98505558
_cell_angle_gamma   119.94167302
_symmetry_Int_Tables_number   1
_chemical_formula_structural   LiBr
_chemical_formula_sum   'Li18 Br18'
_cell_volume   898.33155104
_cell_formula_units_Z   18
loop_
 _symmetry_equiv_pos_site_id
 _symmetry_equiv_pos_as_xyz
  1  'x, y, z'
loop_
 _atom_site_type_symbol
 _atom_site_label
 _atom_site_symmetry_multiplicity
 _atom_site_fract_x
 _atom_site_fract_y
 _atom_site_fract_z
 _atom_site_occupancy
  Li  Li0  1  0.83379140  0.29205563  0.13131018  1
  Li  Li1  1  0.83320972  0.54082395  0.62968700  1
  Li  Li2  1  0.04118826  0.83284596  0.29820479  1
  Li  Li3  1  0.79094431  0.95948110  0.29514680  1
  Li  Li4  1  0.37387460  0.87576993  0.46163427  1
  Li  Li5  1  0.70719171  0.54243337  0.12772065  1
  Li  Li6  1  0.79251411  0.83339234  0.79685452  1
  Li  Li7  1  0.04051010  0.20904452  0.79513739  1
  Li  Li8  1  0.45918672  0.16680637  0.12971803  1
  Li  Li9  1  0.45756228  0.29280672  0.62773143  1
  Li  Li10  1  0.16716729  0.95881717  0.79819216  1
  Li  Li11  1  0.16661131  0.20748362  0.29683228  1
  Li  Li12  1  0.12597797  0.50023701  0.46361418  1
  Li  Li13  1  0.12422697  0.62612565  -0.03835329  1
  Li  Li14  1  0.70795360  0.16623027  0.63132860  1
  Li  Li15  1  0.37452274  0.49951173  -0.03515161  1
  Li  Li16  1  0.50049698  0.62547564  0.46483527  1
  Li  Li17  1  0.49977291  0.87403221  -0.03641302  1
  Br  Br18  1  -0.04097689  0.16705416  0.12907397  1
  Br  Br19  1  -0.04101889  0.79105253  0.63127951  1
  Br  Br20  1  0.16625727  0.70770254  0.29556758  1
  Br  Br21  1  0.54085190  0.83297385  0.29726374  1
  Br  Br22  1  0.50045521  0.12587317  0.46347072  1
  Br  Br23  1  0.83374291  0.79253472  0.13048255  1
  Br  Br24  1  0.54226705  0.70763697  0.79801872  1
  Br  Br25  1  0.16701523  0.45913822  0.79728656  1
  Br  Br26  1  0.20895531  0.04101698  0.13127237  1
  Br  Br27  1  0.20745846  0.16625245  0.63046831  1
  Br  Br28  1  0.29229487  0.83373287  0.79555939  1
  Br  Br29  1  0.29235822  0.45773043  0.29803058  1
  Br  Br30  1  0.87572283  0.37437303  0.46438081  1
  Br  Br31  1  0.87412291  0.49954331  0.96344822  1
  Br  Br32  1  0.83292771  0.04097100  0.62908042  1
  Br  Br33  1  0.49953772  0.37430278  0.96178272  1
  Br  Br34  1  0.62569672  0.50045142  0.46177627  1
  Br  Br35  1  0.62562848  0.12428635  0.96439579  1
