# generated using pymatgen
data_LiBr
_symmetry_space_group_name_H-M   'P 1'
_cell_length_a   8.64792912
_cell_length_b   7.43167029
_cell_length_c   6.32524045
_cell_angle_alpha   89.99998789
_cell_angle_beta   89.99998190
_cell_angle_gamma   89.99997975
_symmetry_Int_Tables_number   1
_chemical_formula_structural   LiBr
_chemical_formula_sum   'Li8 Br8'
_cell_volume   406.51408185
_cell_formula_units_Z   8
loop_
 _symmetry_equiv_pos_site_id
 _symmetry_equiv_pos_as_xyz
  1  'x, y, z'
loop_
 _atom_site_type_symbol
 _atom_site_label
 _atom_site_symmetry_multiplicity
 _atom_site_fract_x
 _atom_site_fract_y
 _atom_site_fract_z
 _atom_site_occupancy
  Li  Li0  1  0.87043477  0.41176903  0.17187896  1
  Li  Li1  1  0.87043498  0.08823083  0.67187892  1
  Li  Li2  1  0.37043432  0.08823055  0.82812087  1
  Li  Li3  1  0.62956498  0.58823039  0.67187939  1
  Li  Li4  1  0.12956518  0.91176972  0.32812068  1
  Li  Li5  1  0.62956534  0.91176896  0.17187956  1
  Li  Li6  1  0.37043485  0.41176992  0.32812114  1
  Li  Li7  1  0.12956532  0.58823057  0.82812069  1
  Br  Br8  1  0.37514174  0.08103621  0.23299710  1
  Br  Br9  1  0.37514152  0.41896379  0.73299686  1
  Br  Br10  1  0.87514193  0.41896406  0.76700273  1
  Br  Br11  1  0.12485834  0.91896378  0.73299666  1
  Br  Br12  1  0.62485846  0.58103598  0.26700346  1
  Br  Br13  1  0.12485824  0.58103616  0.23299688  1
  Br  Br14  1  0.87514173  0.08103610  0.26700287  1
  Br  Br15  1  0.62485832  0.91896394  0.76700322  1
