# generated using pymatgen
data_NaBr
_symmetry_space_group_name_H-M   'P 1'
_cell_length_a   4.27196692
_cell_length_b   4.27196629
_cell_length_c   12.04870933
_cell_angle_alpha   89.99989527
_cell_angle_beta   89.99987875
_cell_angle_gamma   89.99997487
_symmetry_Int_Tables_number   1
_chemical_formula_structural   NaBr
_chemical_formula_sum   'Na4 Br4'
_cell_volume   219.88531446
_cell_formula_units_Z   4
loop_
 _symmetry_equiv_pos_site_id
 _symmetry_equiv_pos_as_xyz
  1  'x, y, z'
loop_
 _atom_site_type_symbol
 _atom_site_label
 _atom_site_symmetry_multiplicity
 _atom_site_fract_x
 _atom_site_fract_y
 _atom_site_fract_z
 _atom_site_occupancy
  Na  Na0  1  0.49987466  0.00036193  0.55386648  1
  Na  Na1  1  0.00036196  0.50012568  0.30386734  1
  Na  Na2  1  0.50012621  -0.00036221  0.05386759  1
  Na  Na3  1  -0.00036285  0.49987434  0.80386677  1
  Br  Br4  1  0.00023752  0.50009879  0.55378684  1
  Br  Br5  1  0.50009860  -0.00023724  0.30378690  1
  Br  Br6  1  -0.00023686  0.49990131  0.05378701  1
  Br  Br7  1  0.49990077  0.00023740  0.80378698  1
