# generated using pymatgen
data_LiBr
_symmetry_space_group_name_H-M   'P 1'
_cell_length_a   8.91135473
_cell_length_b   8.91134722
_cell_length_c   11.13174454
_cell_angle_alpha   90.00000274
_cell_angle_beta   89.99995940
_cell_angle_gamma   90.00019971
_symmetry_Int_Tables_number   1
_chemical_formula_structural   LiBr
_chemical_formula_sum   'Li16 Br16'
_cell_volume   883.99605824
_cell_formula_units_Z   16
loop_
 _symmetry_equiv_pos_site_id
 _symmetry_equiv_pos_as_xyz
  1  'x, y, z'
loop_
 _atom_site_type_symbol
 _atom_site_label
 _atom_site_symmetry_multiplicity
 _atom_site_fract_x
 _atom_site_fract_y
 _atom_site_fract_z
 _atom_site_occupancy
  Li  Li0  1  0.85830854  0.14062375  0.87545180  1
  Li  Li1  1  0.35829360  0.35941546  0.87544715  1
  Li  Li2  1  0.85940247  0.85828238  0.12453904  1
  Li  Li3  1  0.64062521  0.64166924  0.37543882  1
  Li  Li4  1  0.14060642  0.85831206  0.37547573  1
  Li  Li5  1  0.64058839  0.35825985  0.12452562  1
  Li  Li6  1  0.85830441  0.85938806  0.62455059  1
  Li  Li7  1  0.35940826  0.64169603  0.12454923  1
  Li  Li8  1  0.14168993  0.14062514  0.62454481  1
  Li  Li9  1  0.35936071  0.35831536  0.37546150  1
  Li  Li10  1  0.85936089  0.14168655  0.37545173  1
  Li  Li11  1  0.14171973  0.85942188  0.87546938  1
  Li  Li12  1  0.64172373  0.64060023  0.87544816  1
  Li  Li13  1  0.14059922  0.14170187  0.12456523  1
  Li  Li14  1  0.64168696  0.35937236  0.62452577  1
  Li  Li15  1  0.35832163  0.64062903  0.62454444  1
  Br  Br16  1  0.84739209  -0.15151761  0.37505715  1
  Br  Br17  1  0.34741636  0.65152832  0.37506357  1
  Br  Br18  1  0.15151481  0.84741077  0.62493859  1
  Br  Br19  1  0.34851203  0.65262525  0.87505910  1
  Br  Br20  1  -0.15149381  0.84740486  0.87506438  1
  Br  Br21  1  0.34847866  0.34741681  0.62493506  1
  Br  Br22  1  0.84739337  0.15149569  0.12493837  1
  Br  Br23  1  0.65153657  0.65257955  0.62494308  1
  Br  Br24  1  0.15262023  -0.15149940  0.12494526  1
  Br  Br25  1  0.65149059  0.34738063  0.87505985  1
  Br  Br26  1  0.15150773  0.15262615  0.87505718  1
  Br  Br27  1  0.15257185  0.15152509  0.37506700  1
  Br  Br28  1  0.65257109  0.34846065  0.37505941  1
  Br  Br29  1  -0.15151800  0.15259819  0.62494127  1
  Br  Br30  1  0.65262806  0.65146851  0.12493622  1
  Br  Br31  1  0.34737827  0.34849730  0.12494554  1
