# generated using pymatgen
data_LiBr
_symmetry_space_group_name_H-M   'P 1'
_cell_length_a   4.19463842
_cell_length_b   7.28509763
_cell_length_c   7.88751931
_cell_angle_alpha   89.99974298
_cell_angle_beta   121.77537619
_cell_angle_gamma   89.99995107
_symmetry_Int_Tables_number   1
_chemical_formula_structural   LiBr
_chemical_formula_sum   'Li4 Br4'
_cell_volume   204.90384446
_cell_formula_units_Z   4
loop_
 _symmetry_equiv_pos_site_id
 _symmetry_equiv_pos_as_xyz
  1  'x, y, z'
loop_
 _atom_site_type_symbol
 _atom_site_label
 _atom_site_symmetry_multiplicity
 _atom_site_fract_x
 _atom_site_fract_y
 _atom_site_fract_z
 _atom_site_occupancy
  Li  Li0  1  0.27635363  0.91733800  0.77136991  1
  Li  Li1  1  0.77635485  0.41734196  0.77138198  1
  Li  Li2  1  0.27635138  0.08265585  0.27137544  1
  Li  Li3  1  0.77635729  0.58266271  0.27137664  1
  Br  Br4  1  0.65931583  -0.08432448  0.15308196  1
  Br  Br5  1  0.15932674  0.41567594  0.15308935  1
  Br  Br6  1  0.65932422  0.08432606  0.65308520  1
  Br  Br7  1  0.15931712  0.58432395  0.65308608  1
