# generated using pymatgen
data_LiI
_symmetry_space_group_name_H-M   'P 1'
_cell_length_a   4.76792784
_cell_length_b   4.75530779
_cell_length_c   12.68607831
_cell_angle_alpha   90.00559566
_cell_angle_beta   89.99963542
_cell_angle_gamma   90.00000129
_symmetry_Int_Tables_number   1
_chemical_formula_structural   LiI
_chemical_formula_sum   'Li4 I4'
_cell_volume   287.63100025
_cell_formula_units_Z   4
loop_
 _symmetry_equiv_pos_site_id
 _symmetry_equiv_pos_as_xyz
  1  'x, y, z'
loop_
 _atom_site_type_symbol
 _atom_site_label
 _atom_site_symmetry_multiplicity
 _atom_site_fract_x
 _atom_site_fract_y
 _atom_site_fract_z
 _atom_site_occupancy
  Li  Li0  1  0.28184678  -0.00029577  0.49969418  1
  Li  Li1  1  0.71815314  0.49969116  0.00030616  1
  Li  Li2  1  0.21815397  0.00030870  -0.00030804  1
  Li  Li3  1  0.78184604  0.50029569  0.50030762  1
  I  I4  1  0.78086966  0.00018651  0.38624550  1
  I  I5  1  0.21913038  0.50016354  0.11375482  1
  I  I6  1  0.71913007  -0.00016343  0.88624438  1
  I  I7  1  0.28086996  0.49981360  0.61375538  1
