# generated using pymatgen
data_LiI
_symmetry_space_group_name_H-M   'P 1'
_cell_length_a   12.41137418
_cell_length_b   12.41137758
_cell_length_c   8.74251801
_cell_angle_alpha   90.00242666
_cell_angle_beta   89.99754484
_cell_angle_gamma   120.00416223
_symmetry_Int_Tables_number   1
_chemical_formula_structural   LiI
_chemical_formula_sum   'Li18 I18'
_cell_volume   1166.24234812
_cell_formula_units_Z   18
loop_
 _symmetry_equiv_pos_site_id
 _symmetry_equiv_pos_as_xyz
  1  'x, y, z'
loop_
 _atom_site_type_symbol
 _atom_site_label
 _atom_site_symmetry_multiplicity
 _atom_site_fract_x
 _atom_site_fract_y
 _atom_site_fract_z
 _atom_site_occupancy
  Li  Li0  1  0.53585252  0.46699382  0.09676559  1
  Li  Li1  1  0.53583538  0.06885502  0.59674894  1
  Li  Li2  1  0.86633818  0.13081371  0.26343263  1
  Li  Li3  1  0.26450981  0.13368983  0.26340022  1
  Li  Li4  1  0.19964151  0.40215705  0.43006300  1
  Li  Li5  1  0.53297739  0.06882350  0.09672885  1
  Li  Li6  1  0.26447853  0.13083082  0.76341879  1
  Li  Li7  1  0.86631048  0.73549008  0.76339531  1
  Li  Li8  1  0.93114631  0.46416394  0.09675162  1
  Li  Li9  1  0.93117640  0.46702526  0.59673298  1
  Li  Li10  1  0.86918544  0.13366162  0.76343126  1
  Li  Li11  1  0.86916951  0.73552142  0.26341686  1
  Li  Li12  1  0.59781238  0.79749807  0.43008517  1
  Li  Li13  1  0.59784318  0.80035510  0.93006675  1
  Li  Li14  1  0.53300444  0.46414889  0.59676709  1
  Li  Li15  1  0.19967334  0.79748240  0.93009972  1
  Li  Li16  1  0.20251906  0.80032822  0.43009867  1
  Li  Li17  1  0.20250082  0.40218584  0.93008329  1
  I  I18  1  0.45413484  0.90566434  0.35478143  1
  I  I19  1  0.45413843  0.54848179  0.85481393  1
  I  I20  1  0.42766903  0.21253258  0.52145103  1
  I  I21  1  0.78485027  0.57230416  0.52142674  1
  I  I22  1  0.76102883  0.88181478  0.68809584  1
  I  I23  1  0.09436175  0.54848266  0.35476211  1
  I  I24  1  0.78485131  0.21252690  0.02147926  1
  I  I25  1  0.42769530  0.21514784  0.02142914  1
  I  I26  1  0.45151653  0.54586053  0.35481246  1
  I  I27  1  0.45151890  0.90563679  0.85476046  1
  I  I28  1  0.78746954  0.57233186  0.02144866  1
  I  I29  1  0.78747326  0.21514989  0.52147856  1
  I  I30  1  0.11818453  0.87919370  0.68814566  1
  I  I31  1  0.11818436  0.23897028  0.18809450  1
  I  I32  1  0.09433678  0.54586530  0.85478389  1
  I  I33  1  0.76100331  0.87919821  0.18811722  1
  I  I34  1  0.12080144  0.23899658  0.68811521  1
  I  I35  1  0.12080694  0.88181719  0.18814593  1
