# generated using pymatgen
data_NaBr
_symmetry_space_group_name_H-M   'P 1'
_cell_length_a   7.27187836
_cell_length_b   4.20133601
_cell_length_c   7.22271474
_cell_angle_alpha   90.00003899
_cell_angle_beta   89.99996421
_cell_angle_gamma   89.99999485
_symmetry_Int_Tables_number   1
_chemical_formula_structural   NaBr
_chemical_formula_sum   'Na4 Br4'
_cell_volume   220.66552345
_cell_formula_units_Z   4
loop_
 _symmetry_equiv_pos_site_id
 _symmetry_equiv_pos_as_xyz
  1  'x, y, z'
loop_
 _atom_site_type_symbol
 _atom_site_label
 _atom_site_symmetry_multiplicity
 _atom_site_fract_x
 _atom_site_fract_y
 _atom_site_fract_z
 _atom_site_occupancy
  Na  Na0  1  0.24917397  0.75561791  0.58355988  1
  Na  Na1  1  0.74917451  0.24438207  0.58356553  1
  Na  Na2  1  0.75082548  0.24438185  0.08356397  1
  Na  Na3  1  0.25082602  0.75561807  0.08355831  1
  Br  Br4  1  0.41563082  0.25315680  0.33343227  1
  Br  Br5  1  0.91563048  0.74684327  0.33343235  1
  Br  Br6  1  0.58436953  0.74684345  0.83343209  1
  Br  Br7  1  0.08436920  0.25315658  0.83343200  1
