# generated using pymatgen
data_LiBr
_symmetry_space_group_name_H-M   'P 1'
_cell_length_a   7.34592438
_cell_length_b   4.32420539
_cell_length_c   6.74779429
_cell_angle_alpha   90.00004945
_cell_angle_beta   89.99996912
_cell_angle_gamma   89.99999919
_symmetry_Int_Tables_number   1
_chemical_formula_structural   LiBr
_chemical_formula_sum   'Li4 Br4'
_cell_volume   214.34561425
_cell_formula_units_Z   4
loop_
 _symmetry_equiv_pos_site_id
 _symmetry_equiv_pos_as_xyz
  1  'x, y, z'
loop_
 _atom_site_type_symbol
 _atom_site_label
 _atom_site_symmetry_multiplicity
 _atom_site_fract_x
 _atom_site_fract_y
 _atom_site_fract_z
 _atom_site_occupancy
  Li  Li0  1  0.09441207  -0.00144184  0.41000523  1
  Li  Li1  1  0.90558831  0.49855816  0.08999619  1
  Li  Li2  1  0.40558847  0.00144206  0.91000472  1
  Li  Li3  1  0.59441116  0.50144197  0.58999473  1
  Br  Br4  1  0.07834594  -0.00157099  0.02507601  1
  Br  Br5  1  -0.07834628  0.49842935  0.47492383  1
  Br  Br6  1  0.42165392  0.00157036  0.52507575  1
  Br  Br7  1  0.57834640  0.50157092  -0.02507646  1
