# generated using pymatgen
data_LiI
_symmetry_space_group_name_H-M   'P 1'
_cell_length_a   6.61888571
_cell_length_b   5.83556174
_cell_length_c   5.90761866
_cell_angle_alpha   89.99999172
_cell_angle_beta   90.00004457
_cell_angle_gamma   89.99999385
_symmetry_Int_Tables_number   1
_chemical_formula_structural   LiI
_chemical_formula_sum   'Li4 I4'
_cell_volume   228.18127579
_cell_formula_units_Z   4
loop_
 _symmetry_equiv_pos_site_id
 _symmetry_equiv_pos_as_xyz
  1  'x, y, z'
loop_
 _atom_site_type_symbol
 _atom_site_label
 _atom_site_symmetry_multiplicity
 _atom_site_fract_x
 _atom_site_fract_y
 _atom_site_fract_z
 _atom_site_occupancy
  Li  Li0  1  0.56346918  0.75098535  0.71057922  1
  Li  Li1  1  0.06346869  0.24901441  0.71057804  1
  Li  Li2  1  0.43653129  0.24901445  0.21057762  1
  Li  Li3  1  0.93653091  0.75098539  0.21057881  1
  I  I4  1  0.00710690  0.25055351  0.21073246  1
  I  I5  1  0.50710687  0.74944670  0.21073296  1
  I  I6  1  -0.00710687  0.74944669  0.71073303  1
  I  I7  1  0.49289302  0.25055349  0.71073254  1
