# generated using pymatgen
data_LiI
_symmetry_space_group_name_H-M   'P 1'
_cell_length_a   12.54776731
_cell_length_b   7.02551831
_cell_length_c   10.43217965
_cell_angle_alpha   90.00000316
_cell_angle_beta   145.88156073
_cell_angle_gamma   90.00004186
_symmetry_Int_Tables_number   1
_chemical_formula_structural   LiI
_chemical_formula_sum   'Li8 I8'
_cell_volume   515.83350641
_cell_formula_units_Z   8
loop_
 _symmetry_equiv_pos_site_id
 _symmetry_equiv_pos_as_xyz
  1  'x, y, z'
loop_
 _atom_site_type_symbol
 _atom_site_label
 _atom_site_symmetry_multiplicity
 _atom_site_fract_x
 _atom_site_fract_y
 _atom_site_fract_z
 _atom_site_occupancy
  Li  Li0  1  0.49981562  0.25048797  0.49721814  1
  Li  Li1  1  -0.00018411  0.24951005  0.99721960  1
  Li  Li2  1  0.50018439  0.74951321  0.50278136  1
  Li  Li3  1  0.50018447  0.25048660  0.00278114  1
  Li  Li4  1  0.49981562  0.74951575  0.99721883  1
  Li  Li5  1  0.00018426  0.24951293  0.50278146  1
  Li  Li6  1  0.00018454  0.75048590  0.00278130  1
  Li  Li7  1  -0.00018469  0.75048648  0.49721843  1
  I  I8  1  0.75073527  0.00182683  0.12647285  1
  I  I9  1  0.25073498  0.49817359  0.62647209  1
  I  I10  1  0.24926486  -0.00182627  0.87352718  1
  I  I11  1  0.24926576  0.00182643  0.37352832  1
  I  I12  1  0.75073498  -0.00182645  0.62647252  1
  I  I13  1  0.74926511  0.49817330  0.87352779  1
  I  I14  1  0.74926461  0.50182699  0.37352717  1
  I  I15  1  0.25073433  0.50182670  0.12647182  1
