# generated using pymatgen
data_LiBr
_symmetry_space_group_name_H-M   'P 1'
_cell_length_a   7.22970396
_cell_length_b   4.19754894
_cell_length_c   6.74395248
_cell_angle_alpha   90.00007511
_cell_angle_beta   90.00079652
_cell_angle_gamma   89.99996166
_symmetry_Int_Tables_number   1
_chemical_formula_structural   LiBr
_chemical_formula_sum   'Li4 Br4'
_cell_volume   204.65896993
_cell_formula_units_Z   4
loop_
 _symmetry_equiv_pos_site_id
 _symmetry_equiv_pos_as_xyz
  1  'x, y, z'
loop_
 _atom_site_type_symbol
 _atom_site_label
 _atom_site_symmetry_multiplicity
 _atom_site_fract_x
 _atom_site_fract_y
 _atom_site_fract_z
 _atom_site_occupancy
  Li  Li0  1  0.08283131  0.75113654  0.23771017  1
  Li  Li1  1  0.58282959  0.24886103  0.23771376  1
  Li  Li2  1  0.91716872  0.24886398  0.73771434  1
  Li  Li3  1  0.41717223  0.75113471  0.73771330  1
  Br  Br4  1  0.91694153  0.25084406  0.11657291  1
  Br  Br5  1  0.41694453  0.74915732  0.11657152  1
  Br  Br6  1  0.08305647  0.74916081  0.61656766  1
  Br  Br7  1  0.58305563  0.25084154  0.61656726  1
