# generated using pymatgen
data_LiBr
_symmetry_space_group_name_H-M   'P 1'
_cell_length_a   10.29534952
_cell_length_b   11.79595884
_cell_length_c   8.25927473
_cell_angle_alpha   89.99998475
_cell_angle_beta   90.00003071
_cell_angle_gamma   90.02373874
_symmetry_Int_Tables_number   1
_chemical_formula_structural   LiBr
_chemical_formula_sum   'Li16 Br16'
_cell_volume   1003.03530238
_cell_formula_units_Z   16
loop_
 _symmetry_equiv_pos_site_id
 _symmetry_equiv_pos_as_xyz
  1  'x, y, z'
loop_
 _atom_site_type_symbol
 _atom_site_label
 _atom_site_symmetry_multiplicity
 _atom_site_fract_x
 _atom_site_fract_y
 _atom_site_fract_z
 _atom_site_occupancy
  Li  Li0  1  0.00056754  0.13934209  0.37068607  1
  Li  Li1  1  -0.00056993  0.86065788  0.37068611  1
  Li  Li2  1  0.24945181  0.38935669  0.62060313  1
  Li  Li3  1  0.49943070  0.86065712  0.87068629  1
  Li  Li4  1  0.74945066  0.38935695  0.12060153  1
  Li  Li5  1  0.25054940  0.11064453  0.62060075  1
  Li  Li6  1  0.50056816  0.13934147  0.87068638  1
  Li  Li7  1  0.74945112  0.88935677  0.62060120  1
  Li  Li8  1  0.25054882  0.61064373  0.12060157  1
  Li  Li9  1  0.50056825  0.63934175  0.37068644  1
  Li  Li10  1  0.49943237  0.36065817  0.37068573  1
  Li  Li11  1  0.24945023  0.88935761  0.12060163  1
  Li  Li12  1  0.75054882  0.11064339  0.12060222  1
  Li  Li13  1  0.75054974  0.61064357  0.62060106  1
  Li  Li14  1  0.00056913  0.63934087  0.87068658  1
  Li  Li15  1  -0.00056703  0.36065717  0.87068690  1
  Br  Br16  1  0.94057967  0.75031385  0.62071660  1
  Br  Br17  1  0.05942005  0.24968680  0.62071450  1
  Br  Br18  1  0.30941579  0.00027926  0.87075010  1
  Br  Br19  1  0.55942058  0.24968689  0.12071595  1
  Br  Br20  1  0.80941647  0.00028004  0.37075279  1
  Br  Br21  1  0.19058458  0.49971931  0.87075283  1
  Br  Br22  1  0.44057839  0.75031499  0.12071747  1
  Br  Br23  1  0.80941593  0.50027887  0.87075076  1
  Br  Br24  1  0.19058313  -0.00027957  0.37075198  1
  Br  Br25  1  0.44058060  0.25031537  0.62071614  1
  Br  Br26  1  0.55942119  0.74968511  0.62071602  1
  Br  Br27  1  0.30941437  0.50027976  0.37075218  1
  Br  Br28  1  0.69058581  0.49972029  0.37075221  1
  Br  Br29  1  0.69058344  -0.00028074  0.87075328  1
  Br  Br30  1  0.94057901  0.25031459  0.12071656  1
  Br  Br31  1  0.05942120  0.74968540  0.12071520  1
