# generated using pymatgen
data_LiI
_symmetry_space_group_name_H-M   'P 1'
_cell_length_a   8.25804605
_cell_length_b   10.29045915
_cell_length_c   9.44656058
_cell_angle_alpha   90.10739099
_cell_angle_beta   89.99960503
_cell_angle_gamma   89.99779016
_symmetry_Int_Tables_number   1
_chemical_formula_structural   LiI
_chemical_formula_sum   'Li8 I8'
_cell_volume   802.75866893
_cell_formula_units_Z   8
loop_
 _symmetry_equiv_pos_site_id
 _symmetry_equiv_pos_as_xyz
  1  'x, y, z'
loop_
 _atom_site_type_symbol
 _atom_site_label
 _atom_site_symmetry_multiplicity
 _atom_site_fract_x
 _atom_site_fract_y
 _atom_site_fract_z
 _atom_site_occupancy
  Li  Li0  1  0.10268930  0.49684272  0.15306092  1
  Li  Li1  1  0.10263636  0.00318241  0.65307634  1
  Li  Li2  1  0.60269173  0.50316148  0.34694571  1
  Li  Li3  1  0.39733571  0.00319489  0.15307402  1
  Li  Li4  1  -0.10266201  0.99681153  0.34692007  1
  Li  Li5  1  0.39733579  0.49683027  0.65305700  1
  Li  Li6  1  0.60263604  0.99680326  0.84692265  1
  Li  Li7  1  -0.10266400  0.50317247  0.84694298  1
  I  I8  1  0.71840156  -0.00630521  0.11375008  1
  I  I9  1  0.71840145  0.50660787  0.61380524  1
  I  I10  1  0.21839903  0.00638405  0.38624797  1
  I  I11  1  0.78162510  0.50668649  0.11380629  1
  I  I12  1  0.28162482  0.49336556  0.38619803  1
  I  I13  1  0.78157812  -0.00639629  0.61375087  1
  I  I14  1  0.21839879  0.49334672  0.88619573  1
  I  I15  1  0.28157221  0.00631178  0.88624611  1
