# generated using pymatgen
data_LiBr
_symmetry_space_group_name_H-M   'P 1'
_cell_length_a   10.49146056
_cell_length_b   10.49147138
_cell_length_c   11.89857804
_cell_angle_alpha   89.99045117
_cell_angle_beta   90.00964945
_cell_angle_gamma   120.01582269
_symmetry_Int_Tables_number   1
_chemical_formula_structural   LiBr
_chemical_formula_sum   'Li18 Br18'
_cell_volume   1134.04104464
_cell_formula_units_Z   18
loop_
 _symmetry_equiv_pos_site_id
 _symmetry_equiv_pos_as_xyz
  1  'x, y, z'
loop_
 _atom_site_type_symbol
 _atom_site_label
 _atom_site_symmetry_multiplicity
 _atom_site_fract_x
 _atom_site_fract_y
 _atom_site_fract_z
 _atom_site_occupancy
  Li  Li0  1  0.00107437  0.24889389  0.79281942  1
  Li  Li1  1  0.00112537  0.75221556  0.29285153  1
  Li  Li2  1  0.08444030  0.66559366  0.95948622  1
  Li  Li3  1  0.58110321  0.91552670  0.95950060  1
  Li  Li4  1  0.41780776  0.08556389  0.12616666  1
  Li  Li5  1  0.75113954  0.75222981  0.79283398  1
  Li  Li6  1  0.58111646  0.66554157  0.45951863  1
  Li  Li7  1  0.08447314  0.41889622  0.45949944  1
  Li  Li8  1  0.24778367  -0.00112527  0.79285137  1
  Li  Li9  1  0.24777015  0.24885842  0.29283400  1
  Li  Li10  1  0.33440757  0.91555992  0.45948664  1
  Li  Li11  1  0.33445903  0.41888317  0.95951792  1
  Li  Li12  1  0.91444984  0.33220761  0.12618484  1
  Li  Li13  1  0.91443717  0.58219422  0.62616648  1
  Li  Li14  1  0.75110698  -0.00107399  0.29282007  1
  Li  Li15  1  0.41777260  0.33225920  0.62615342  1
  Li  Li16  1  0.66774074  0.58222678  0.12615370  1
  Li  Li17  1  0.66779098  0.08555035  0.62618480  1
  Br  Br18  1  0.90734419  0.57324598  0.12677632  1
  Br  Br19  1  0.90740430  0.33406878  0.62682761  1
  Br  Br20  1  0.76008717  0.75932151  0.29344301  1
  Br  Br21  1  -0.00080005  0.23996601  0.29338510  1
  Br  Br22  1  0.09336816  0.66746727  0.46005228  1
  Br  Br23  1  0.42670033  0.33413338  0.12671902  1
  Br  Br24  1  -0.00073456  0.75926284  0.79349380  1
  Br  Br25  1  0.76003446  0.00080246  0.79338523  1
  Br  Br26  1  0.66593062  0.09259470  0.12682726  1
  Br  Br27  1  0.66586466  0.57329862  0.62671963  1
  Br  Br28  1  0.24067802  0.23991407  0.79344364  1
  Br  Br29  1  0.24073869  0.00073563  0.29349349  1
  Br  Br30  1  0.33259722  0.42592756  0.46016090  1
  Br  Br31  1  0.33253222  -0.09336705  0.96005236  1
  Br  Br32  1  0.42675247  0.09265507  0.62677460  1
  Br  Br33  1  0.09342060  0.42598852  0.96010851  1
  Br  Br34  1  0.57401167  -0.09341933  0.46010892  1
  Br  Br35  1  0.57407095  0.66740225  0.96016150  1
