# generated using pymatgen
data_LiBr
_symmetry_space_group_name_H-M   'P 1'
_cell_length_a   3.89692906
_cell_length_b   3.89693013
_cell_length_c   11.00912748
_cell_angle_alpha   90.00006535
_cell_angle_beta   90.00005013
_cell_angle_gamma   90.00000919
_symmetry_Int_Tables_number   1
_chemical_formula_structural   LiBr
_chemical_formula_sum   'Li4 Br4'
_cell_volume   167.18527323
_cell_formula_units_Z   4
loop_
 _symmetry_equiv_pos_site_id
 _symmetry_equiv_pos_as_xyz
  1  'x, y, z'
loop_
 _atom_site_type_symbol
 _atom_site_label
 _atom_site_symmetry_multiplicity
 _atom_site_fract_x
 _atom_site_fract_y
 _atom_site_fract_z
 _atom_site_occupancy
  Li  Li0  1  0.00405463  0.49779723  0.12514424  1
  Li  Li1  1  0.49779848  -0.00405926  0.87514082  1
  Li  Li2  1  -0.00405382  0.50220452  0.62513991  1
  Li  Li3  1  0.50220541  0.00404937  0.37514264  1
  Br  Br4  1  -0.00073134  0.49867367  0.87419780  1
  Br  Br5  1  0.49867098  0.00073269  0.62419728  1
  Br  Br6  1  0.00072942  0.50132888  0.37419926  1
  Br  Br7  1  0.50132624  -0.00072711  0.12419965  1
