# generated using pymatgen
data_KI
_symmetry_space_group_name_H-M   'P 1'
_cell_length_a   5.11409440
_cell_length_b   5.11174870
_cell_length_c   12.31542241
_cell_angle_alpha   89.96456029
_cell_angle_beta   89.99288577
_cell_angle_gamma   120.01544331
_symmetry_Int_Tables_number   1
_chemical_formula_structural   KI
_chemical_formula_sum   'K3 I3'
_cell_volume   278.77282605
_cell_formula_units_Z   3
loop_
 _symmetry_equiv_pos_site_id
 _symmetry_equiv_pos_as_xyz
  1  'x, y, z'
loop_
 _atom_site_type_symbol
 _atom_site_label
 _atom_site_symmetry_multiplicity
 _atom_site_fract_x
 _atom_site_fract_y
 _atom_site_fract_z
 _atom_site_occupancy
  K  K0  1  0.66693796  0.00023197  0.95688753  1
  K  K1  1  -0.00035516  0.66665803  0.28990023  1
  K  K2  1  0.33343078  0.33310330  0.62370606  1
  I  I3  1  0.33422661  0.33444161  0.12334686  1
  I  I4  1  0.66554036  -0.00011235  0.45667801  1
  I  I5  1  0.00021944  0.66567744  0.78999386  1
