# generated using pymatgen
data_NaI
_symmetry_space_group_name_H-M   'P 1'
_cell_length_a   15.02486155
_cell_length_b   15.02489510
_cell_length_c   6.46568847
_cell_angle_alpha   90.01490032
_cell_angle_beta   89.98460771
_cell_angle_gamma   120.08571629
_symmetry_Int_Tables_number   1
_chemical_formula_structural   NaI
_chemical_formula_sum   'Na12 I12'
_cell_volume   1262.96568462
_cell_formula_units_Z   12
loop_
 _symmetry_equiv_pos_site_id
 _symmetry_equiv_pos_as_xyz
  1  'x, y, z'
loop_
 _atom_site_type_symbol
 _atom_site_label
 _atom_site_symmetry_multiplicity
 _atom_site_fract_x
 _atom_site_fract_y
 _atom_site_fract_z
 _atom_site_occupancy
  Na  Na0  1  0.54000729  0.66081716  0.00012654  1
  Na  Na1  1  0.33928264  0.87911502  0.00015627  1
  Na  Na2  1  0.87894821  0.53971502  -0.00025002  1
  Na  Na3  1  0.45999264  0.33918292  -0.00012684  1
  Na  Na4  1  0.12088750  0.66071696  0.50014627  1
  Na  Na5  1  0.33918408  0.45999472  0.50012324  1
  Na  Na6  1  0.53971556  0.87894775  0.50024192  1
  Na  Na7  1  0.66071719  0.12088483  -0.00015611  1
  Na  Na8  1  0.46028441  0.12105242  0.49975826  1
  Na  Na9  1  0.87911257  0.33928289  0.49985346  1
  Na  Na10  1  0.66081611  0.54000559  0.49987671  1
  Na  Na11  1  0.12105177  0.46028482  0.00025030  1
  I  I12  1  0.67303631  0.12380836  0.50040975  1
  I  I13  1  0.87606929  0.54902737  0.50038816  1
  I  I14  1  0.54927670  0.67305895  0.49966173  1
  I  I15  1  0.32696352  0.87619154  0.49959021  1
  I  I16  1  0.45097377  0.12393216  0.00040384  1
  I  I17  1  0.87619177  0.32696400  0.00041872  1
  I  I18  1  0.67305858  0.54927408  0.00034807  1
  I  I19  1  0.12393064  0.45097252  0.49961141  1
  I  I20  1  0.32694167  0.45072604  -0.00034813  1
  I  I21  1  0.54902612  0.87606791  -0.00040403  1
  I  I22  1  0.12380814  0.67303589  -0.00041816  1
  I  I23  1  0.45072354  0.32694108  0.50033844  1
