# generated using pymatgen
data_LiBr
_symmetry_space_group_name_H-M   'P 1'
_cell_length_a   11.54488437
_cell_length_b   11.54489463
_cell_length_c   7.91168562
_cell_angle_alpha   90.00573757
_cell_angle_beta   89.99445684
_cell_angle_gamma   120.00262911
_symmetry_Int_Tables_number   1
_chemical_formula_structural   LiBr
_chemical_formula_sum   'Li18 Br18'
_cell_volume   913.20379073
_cell_formula_units_Z   18
loop_
 _symmetry_equiv_pos_site_id
 _symmetry_equiv_pos_as_xyz
  1  'x, y, z'
loop_
 _atom_site_type_symbol
 _atom_site_label
 _atom_site_symmetry_multiplicity
 _atom_site_fract_x
 _atom_site_fract_y
 _atom_site_fract_z
 _atom_site_occupancy
  Li  Li0  1  0.12900579  0.25999456  0.67294554  1
  Li  Li1  1  0.12901108  0.86901467  0.17295778  1
  Li  Li2  1  0.07336288  0.53782191  0.83967972  1
  Li  Li3  1  0.46447143  -0.07335023  0.83967180  1
  Li  Li4  1  0.40662866  0.20229664  0.00615649  1
  Li  Li5  1  0.73999802  0.86901566  0.67293139  1
  Li  Li6  1  0.46444784  0.53780872  0.33970855  1
  Li  Li7  1  0.07335070  0.53552711  0.33967488  1
  Li  Li8  1  0.13098513  0.87098967  0.67295533  1
  Li  Li9  1  0.13098414  0.25999800  0.17292952  1
  Li  Li10  1  0.46217402  -0.07336309  0.33967609  1
  Li  Li11  1  0.46219336  0.53555180  0.83971095  1
  Li  Li12  1  0.79769695  0.20433219  0.00618141  1
  Li  Li13  1  0.79770407  0.59337176  0.50615893  1
  Li  Li14  1  0.74000518  0.87099547  0.17294884  1
  Li  Li15  1  0.40663258  0.20433324  0.50618472  1
  Li  Li16  1  0.79566919  0.59336878  0.00619111  1
  Li  Li17  1  0.79566789  0.20230200  0.50617950  1
  Br  Br18  1  0.88040571  0.12098301  0.24539442  1
  Br  Br19  1  0.88041030  0.75942262  0.74543974  1
  Br  Br20  1  0.21225604  0.78632224  0.41211074  1
  Br  Br21  1  0.57403379  0.78770966  0.41217460  1
  Br  Br22  1  0.54571651  0.09266736  0.57887275  1
  Br  Br23  1  0.87904899  0.75943902  0.24541469  1
  Br  Br24  1  0.57406510  0.78631880  0.91217661  1
  Br  Br25  1  0.21229510  0.42596630  0.91217569  1
  Br  Br26  1  0.24057392  0.11959026  0.24543717  1
  Br  Br27  1  0.24055743  0.12094841  0.74541410  1
  Br  Br28  1  0.21368072  0.78774417  0.91211555  1
  Br  Br29  1  0.21368126  0.42593634  0.41218051  1
  Br  Br30  1  0.90736070  0.45304791  0.57885922  1
  Br  Br31  1  0.90733735  0.45428060  0.07887244  1
  Br  Br32  1  0.87901767  0.11959091  0.74539256  1
  Br  Br33  1  0.54569753  0.45308169  0.07880257  1
  Br  Br34  1  0.54691989  0.45430216  0.57880306  1
  Br  Br35  1  0.54695312  0.09263962  0.07885891  1
