# generated using pymatgen
data_KI
_symmetry_space_group_name_H-M   'P 1'
_cell_length_a   7.67680660
_cell_length_b   7.66933565
_cell_length_c   14.01751546
_cell_angle_alpha   90.00002144
_cell_angle_beta   90.00000622
_cell_angle_gamma   120.05216415
_symmetry_Int_Tables_number   1
_chemical_formula_structural   KI
_chemical_formula_sum   'K6 I6'
_cell_volume   714.35073796
_cell_formula_units_Z   6
loop_
 _symmetry_equiv_pos_site_id
 _symmetry_equiv_pos_as_xyz
  1  'x, y, z'
loop_
 _atom_site_type_symbol
 _atom_site_label
 _atom_site_symmetry_multiplicity
 _atom_site_fract_x
 _atom_site_fract_y
 _atom_site_fract_z
 _atom_site_occupancy
  K  K0  1  0.31858949  0.68011766  0.29724654  1
  K  K1  1  0.63845075  0.31877210  0.63033448  1
  K  K2  1  0.36154920  0.68122775  0.63033444  1
  K  K3  1  0.68026350  0.36159414  0.96372514  1
  K  K4  1  0.31973654  0.63840570  0.96372510  1
  K  K5  1  0.68141082  0.31988263  0.29724655  1
  I  I6  1  0.85803736  0.69104586  0.14161628  1
  I  I7  1  0.16708551  0.85821824  0.47503969  1
  I  I8  1  0.83291428  0.14178152  0.47503966  1
  I  I9  1  0.69105674  0.83331565  0.80838938  1
  I  I10  1  0.30894323  0.16668456  0.80838933  1
  I  I11  1  0.14196258  0.30895419  0.14161621  1
