# generated using pymatgen
data_LiBr
_symmetry_space_group_name_H-M   'P 1'
_cell_length_a   11.04317450
_cell_length_b   11.04489606
_cell_length_c   7.10774472
_cell_angle_alpha   89.99979929
_cell_angle_beta   90.00011986
_cell_angle_gamma   90.00005544
_symmetry_Int_Tables_number   1
_chemical_formula_structural   LiBr
_chemical_formula_sum   'Li16 Br16'
_cell_volume   866.93670261
_cell_formula_units_Z   16
loop_
 _symmetry_equiv_pos_site_id
 _symmetry_equiv_pos_as_xyz
  1  'x, y, z'
loop_
 _atom_site_type_symbol
 _atom_site_label
 _atom_site_symmetry_multiplicity
 _atom_site_fract_x
 _atom_site_fract_y
 _atom_site_fract_z
 _atom_site_occupancy
  Li  Li0  1  0.62551898  0.44419276  0.93821409  1
  Li  Li1  1  0.94400430  0.62547581  0.18837705  1
  Li  Li2  1  0.37448732  0.44419267  0.43821638  1
  Li  Li3  1  0.37448405  0.55580689  0.93821342  1
  Li  Li4  1  0.05599837  0.37452338  0.18837878  1
  Li  Li5  1  0.55599543  0.12547833  0.18837452  1
  Li  Li6  1  0.44400253  0.87452506  0.18837702  1
  Li  Li7  1  0.05599680  0.62547558  0.68837761  1
  Li  Li8  1  0.94400424  0.37452184  0.68837679  1
  Li  Li9  1  0.87448401  0.05580850  0.43821588  1
  Li  Li10  1  0.55599566  0.87452362  0.68837608  1
  Li  Li11  1  0.12551193  0.94419054  0.43821856  1
  Li  Li12  1  0.44400276  0.12547720  0.68837536  1
  Li  Li13  1  0.87448480  0.94418989  0.93821632  1
  Li  Li14  1  0.12551208  0.05580862  0.93821826  1
  Li  Li15  1  0.62551490  0.55580944  0.43821846  1
  Br  Br16  1  0.64891821  0.05777912  0.50420177  1
  Br  Br17  1  0.55771582  0.64884895  0.75396582  1
  Br  Br18  1  0.35107865  0.05778066  0.00420408  1
  Br  Br19  1  0.35107837  0.94222077  0.50420571  1
  Br  Br20  1  0.44228882  0.35115170  0.75396332  1
  Br  Br21  1  0.94228442  0.14884741  0.75396428  1
  Br  Br22  1  0.05771271  0.85114983  0.75396590  1
  Br  Br23  1  0.44228706  0.64885000  0.25396443  1
  Br  Br24  1  0.55771429  0.35115268  0.25396226  1
  Br  Br25  1  0.85108347  0.44222004  0.00420519  1
  Br  Br26  1  0.94228477  0.85115049  0.25396448  1
  Br  Br27  1  0.14892077  0.55777910  0.00420680  1
  Br  Br28  1  0.05771348  0.14884867  0.25396602  1
  Br  Br29  1  0.85108136  0.55777766  0.50420486  1
  Br  Br30  1  0.14892085  0.44222053  0.50420722  1
  Br  Br31  1  0.64891879  0.94222225  0.00420296  1
