# generated using pymatgen
data_LiI
_symmetry_space_group_name_H-M   'P 1'
_cell_length_a   4.01289715
_cell_length_b   8.09314854
_cell_length_c   4.09506686
_cell_angle_alpha   90.00006151
_cell_angle_beta   90.20191518
_cell_angle_gamma   90.00066616
_symmetry_Int_Tables_number   1
_chemical_formula_structural   LiI
_chemical_formula_sum   'Li2 I2'
_cell_volume   132.99454867
_cell_formula_units_Z   2
loop_
 _symmetry_equiv_pos_site_id
 _symmetry_equiv_pos_as_xyz
  1  'x, y, z'
loop_
 _atom_site_type_symbol
 _atom_site_label
 _atom_site_symmetry_multiplicity
 _atom_site_fract_x
 _atom_site_fract_y
 _atom_site_fract_z
 _atom_site_occupancy
  Li  Li0  1  0.52973401  0.74959646  0.84041700  1
  Li  Li1  1  0.52973425  0.25040366  0.34041127  1
  I  I2  1  0.02901232  0.24978363  0.84015538  1
  I  I3  1  0.02901206  0.75021626  0.34015993  1
