# generated using pymatgen
data_LiI
_symmetry_space_group_name_H-M   'P 1'
_cell_length_a   12.57961574
_cell_length_b   12.57956694
_cell_length_c   8.67515924
_cell_angle_alpha   90.00150571
_cell_angle_beta   89.99840846
_cell_angle_gamma   120.00032251
_symmetry_Int_Tables_number   1
_chemical_formula_structural   LiI
_chemical_formula_sum   'Li18 I18'
_cell_volume   1188.88470809
_cell_formula_units_Z   18
loop_
 _symmetry_equiv_pos_site_id
 _symmetry_equiv_pos_as_xyz
  1  'x, y, z'
loop_
 _atom_site_type_symbol
 _atom_site_label
 _atom_site_symmetry_multiplicity
 _atom_site_fract_x
 _atom_site_fract_y
 _atom_site_fract_z
 _atom_site_occupancy
  Li  Li0  1  0.46521725  0.92871619  0.08064568  1
  Li  Li1  1  0.46522250  0.53649315  0.58063900  1
  Li  Li2  1  0.40466215  0.20147649  0.24721391  1
  Li  Li3  1  0.79681583  0.59534677  0.24721457  1
  Li  Li4  1  0.73801938  0.86982973  0.41393455  1
  Li  Li5  1  0.07127098  0.53649465  0.08064988  1
  Li  Li6  1  0.79682007  0.20147582  0.74720262  1
  Li  Li7  1  0.40465365  0.20318301  0.74721828  1
  Li  Li8  1  0.46351006  0.53477871  0.08064079  1
  Li  Li9  1  0.46350458  0.92872767  0.58064986  1
  Li  Li10  1  0.79852597  0.59534186  0.74721198  1
  Li  Li11  1  0.79852567  0.20318161  0.24720192  1
  Li  Li12  1  0.13017392  0.86818503  0.41392109  1
  Li  Li13  1  0.13017126  0.26198136  0.91393504  1
  Li  Li14  1  0.07128073  0.53478176  0.58064593  1
  Li  Li15  1  0.73802135  0.86818778  0.91393187  1
  Li  Li16  1  0.13181222  0.26197833  0.41393149  1
  Li  Li17  1  0.13181375  0.86982472  0.91392039  1
  I  I18  1  0.87952030  0.11928425  -0.01295699  1
  I  I19  1  0.87952328  0.76024334  0.48705439  1
  I  I20  1  0.21411492  0.78709724  0.15380659  1
  I  I21  1  0.57298897  0.78589488  0.15380483  1
  I  I22  1  0.54732809  0.09357547  0.32044169  1
  I  I23  1  0.88071824  0.76023640  -0.01295134  1
  I  I24  1  0.57298311  0.78710113  0.65381014  1
  I  I25  1  0.21410589  0.42701099  0.65380911  1
  I  I26  1  0.23975769  0.12047732  -0.01294578  1
  I  I27  1  0.23976233  0.11928097  0.48705570  1
  I  I28  1  0.21290368  0.78588519  0.65380679  1
  I  I29  1  0.21289682  0.42701692  0.15381178  1
  I  I30  1  0.90642037  0.45375711  0.32044210  1
  I  I31  1  0.90642517  0.45266933  0.82043965  1
  I  I32  1  0.88071864  0.12048175  0.48704405  1
  I  I33  1  0.54733400  0.45376003  0.82043363  1
  I  I34  1  0.54623597  0.45266275  0.32042938  1
  I  I35  1  0.54624122  0.09358028  0.82044508  1
