# generated using pymatgen
data_LiBr
_symmetry_space_group_name_H-M   'P 1'
_cell_length_a   11.72884214
_cell_length_b   10.50673139
_cell_length_c   8.29855356
_cell_angle_alpha   90.00003670
_cell_angle_beta   89.99977472
_cell_angle_gamma   90.01755425
_symmetry_Int_Tables_number   1
_chemical_formula_structural   LiBr
_chemical_formula_sum   'Li16 Br16'
_cell_volume   1022.64559298
_cell_formula_units_Z   16
loop_
 _symmetry_equiv_pos_site_id
 _symmetry_equiv_pos_as_xyz
  1  'x, y, z'
loop_
 _atom_site_type_symbol
 _atom_site_label
 _atom_site_symmetry_multiplicity
 _atom_site_fract_x
 _atom_site_fract_y
 _atom_site_fract_z
 _atom_site_occupancy
  Li  Li0  1  0.10928509  0.24964839  0.50272702  1
  Li  Li1  1  0.89071734  0.75035364  0.50273005  1
  Li  Li2  1  0.14072680  0.49985356  0.75263439  1
  Li  Li3  1  0.39072068  0.75035351  0.00273026  1
  Li  Li4  1  0.64072712  0.49985390  0.25263241  1
  Li  Li5  1  0.35927060  0.00014591  0.75263175  1
  Li  Li6  1  0.60928508  0.24964773  0.00272783  1
  Li  Li7  1  0.64072760  -0.00014575  0.75263422  1
  Li  Li8  1  0.35927131  0.50014425  0.25262990  1
  Li  Li9  1  0.60928371  0.74964671  0.50272848  1
  Li  Li10  1  0.39071822  0.25035315  0.50272852  1
  Li  Li11  1  0.14072500  -0.00014490  0.25263235  1
  Li  Li12  1  0.85927110  0.00014544  0.25263039  1
  Li  Li13  1  0.85927042  0.50014462  0.75263085  1
  Li  Li14  1  0.10928224  0.74964643  0.00272894  1
  Li  Li15  1  0.89071718  0.25035391  0.00272860  1
  Br  Br16  1  0.75034440  0.56267184  0.50282022  1
  Br  Br17  1  0.24965702  0.43732764  0.50282269  1
  Br  Br18  1  0.49961640  0.81268538  0.75276687  1
  Br  Br19  1  0.74965692  0.43732824  0.00282225  1
  Br  Br20  1  -0.00038493  0.81268576  0.25276657  1
  Br  Br21  1  0.00038232  0.68731306  0.75276909  1
  Br  Br22  1  0.25034477  0.56267262  0.00282055  1
  Br  Br23  1  -0.00038270  0.31268525  0.75276768  1
  Br  Br24  1  0.00038228  0.18731555  0.25276923  1
  Br  Br25  1  0.25034527  0.06267295  0.50281792  1
  Br  Br26  1  0.74965533  0.93732798  0.50282066  1
  Br  Br27  1  0.49961681  0.31268506  0.25276671  1
  Br  Br28  1  0.50038410  0.68731364  0.25276851  1
  Br  Br29  1  0.50038216  0.18731495  0.75277005  1
  Br  Br30  1  0.75034465  0.06267285  0.00282059  1
  Br  Br31  1  0.24965570  0.93732671  0.00282222  1
