# generated using pymatgen
data_LiBr
_symmetry_space_group_name_H-M   'P 1'
_cell_length_a   5.42597345
_cell_length_b   7.79453830
_cell_length_c   4.58796555
_cell_angle_alpha   89.99998849
_cell_angle_beta   90.00002166
_cell_angle_gamma   89.99999637
_symmetry_Int_Tables_number   1
_chemical_formula_structural   LiBr
_chemical_formula_sum   'Li4 Br4'
_cell_volume   194.03863348
_cell_formula_units_Z   4
loop_
 _symmetry_equiv_pos_site_id
 _symmetry_equiv_pos_as_xyz
  1  'x, y, z'
loop_
 _atom_site_type_symbol
 _atom_site_label
 _atom_site_symmetry_multiplicity
 _atom_site_fract_x
 _atom_site_fract_y
 _atom_site_fract_z
 _atom_site_occupancy
  Li  Li0  1  0.74961165  0.08317251  0.29747177  1
  Li  Li1  1  0.24960917  0.41682760  0.29747267  1
  Li  Li2  1  0.25039065  0.91682758  0.79744199  1
  Li  Li3  1  0.75038799  0.58317251  0.79744114  1
  Br  Br4  1  0.75010972  0.41926926  0.29647358  1
  Br  Br5  1  0.25011090  0.08073049  0.29647421  1
  Br  Br6  1  0.24988935  0.58073049  0.79648414  1
  Br  Br7  1  0.74989058  0.91926955  0.79648343  1
