# generated using pymatgen
data_LiI
_symmetry_space_group_name_H-M   'P 1'
_cell_length_a   7.38275810
_cell_length_b   7.38204436
_cell_length_c   10.48184894
_cell_angle_alpha   89.99995567
_cell_angle_beta   90.00002181
_cell_angle_gamma   120.06658053
_symmetry_Int_Tables_number   1
_chemical_formula_structural   LiI
_chemical_formula_sum   'Li6 I6'
_cell_volume   494.39270523
_cell_formula_units_Z   6
loop_
 _symmetry_equiv_pos_site_id
 _symmetry_equiv_pos_as_xyz
  1  'x, y, z'
loop_
 _atom_site_type_symbol
 _atom_site_label
 _atom_site_symmetry_multiplicity
 _atom_site_fract_x
 _atom_site_fract_y
 _atom_site_fract_z
 _atom_site_occupancy
  Li  Li0  1  0.00297328  0.46158308  0.60838289  1
  Li  Li1  1  0.54120124  0.00300855  0.44163697  1
  Li  Li2  1  0.45879906  0.99699154  0.94163646  1
  Li  Li3  1  0.46161104  0.45869135  0.77500809  1
  Li  Li4  1  0.53838827  0.54130739  0.27500793  1
  Li  Li5  1  0.99702747  0.53841716  0.10838259  1
  I  I6  1  0.58236693  0.16075346  0.69217381  1
  I  I7  1  0.42194290  0.58272068  0.52555178  1
  I  I8  1  0.57805719  0.41727948  0.02555167  1
  I  I9  1  0.16074266  0.57764471  0.85895754  1
  I  I10  1  0.83925761  0.42235579  0.35895776  1
  I  I11  1  0.41763234  0.83924680  0.19217370  1
