# generated using pymatgen
data_LiBr
_symmetry_space_group_name_H-M   'P 1'
_cell_length_a   10.95600825
_cell_length_b   10.95556030
_cell_length_c   12.20007517
_cell_angle_alpha   89.99577198
_cell_angle_beta   90.01293872
_cell_angle_gamma   119.99602040
_symmetry_Int_Tables_number   1
_chemical_formula_structural   LiBr
_chemical_formula_sum   'Li18 Br18'
_cell_volume   1268.22843226
_cell_formula_units_Z   18
loop_
 _symmetry_equiv_pos_site_id
 _symmetry_equiv_pos_as_xyz
  1  'x, y, z'
loop_
 _atom_site_type_symbol
 _atom_site_label
 _atom_site_symmetry_multiplicity
 _atom_site_fract_x
 _atom_site_fract_y
 _atom_site_fract_z
 _atom_site_occupancy
  Li  Li0  1  0.57099060  0.88205339  0.75863233  1
  Li  Li1  1  0.35591709  -0.09575041  0.57480610  1
  Li  Li2  1  0.42900872  0.11794532  0.24136882  1
  Li  Li3  1  0.31094353  0.42872891  0.75861228  1
  Li  Li4  1  0.54814558  0.64400162  0.57496841  1
  Li  Li5  1  0.88207337  0.31094186  0.24149792  1
  Li  Li6  1  0.78520453  0.02299777  0.09181352  1
  Li  Li7  1  0.11792607  0.68905788  0.75850173  1
  Li  Li8  1  0.68905563  0.57127064  0.24138731  1
  Li  Li9  1  0.21479467  0.97700132  0.90818605  1
  Li  Li10  1  0.45185509  0.35599918  0.42503157  1
  Li  Li11  1  0.97715096  0.76215228  0.09192188  1
  Li  Li12  1  0.02284852  0.23784769  0.90807844  1
  Li  Li13  1  0.64408450  0.09575171  0.42519449  1
  Li  Li14  1  0.23772645  0.21488923  0.09187215  1
  Li  Li15  1  0.76227320  0.78510981  0.90812784  1
  Li  Li16  1  0.09591191  0.45174060  0.57483959  1
  Li  Li17  1  -0.09591067  0.54826112  0.42515967  1
  Br  Br18  1  0.02605938  0.24592289  0.11846765  1
  Br  Br19  1  0.44695992  0.35890887  0.21465806  1
  Br  Br20  1  0.97393985  0.75407591  0.88153246  1
  Br  Br21  1  0.21967771  0.97400380  0.11855583  1
  Br  Br22  1  0.91197956  0.55310913  0.21480182  1
  Br  Br23  1  0.24555539  0.21955211  0.88149510  1
  Br  Br24  1  0.42106449  0.11339957  0.45176041  1
  Br  Br25  1  0.75444357  0.78044749  0.11850439  1
  Br  Br26  1  0.78032260  0.02599553  0.88144383  1
  Br  Br27  1  0.57893732  0.88660167  0.54824091  1
  Br  Br28  1  0.08801985  0.44689092  0.78519747  1
  Br  Br29  1  0.88662467  0.30767580  0.45187835  1
  Br  Br30  1  0.11337597  0.69232554  0.54812123  1
  Br  Br31  1  0.55303994  0.64109036  0.78534192  1
  Br  Br32  1  0.69236698  0.57922401  0.45178863  1
  Br  Br33  1  0.30763346  0.42077693  0.54821109  1
  Br  Br34  1  0.64112463  0.08782390  0.21481768  1
  Br  Br35  1  0.35887499  0.91217566  0.78518310  1
