# generated using pymatgen
data_LiBr
_symmetry_space_group_name_H-M   'P 1'
_cell_length_a   3.91113088
_cell_length_b   3.91104463
_cell_length_c   10.83916506
_cell_angle_alpha   89.99972740
_cell_angle_beta   90.00068127
_cell_angle_gamma   90.00027710
_symmetry_Int_Tables_number   1
_chemical_formula_structural   LiBr
_chemical_formula_sum   'Li4 Br4'
_cell_volume   165.80245288
_cell_formula_units_Z   4
loop_
 _symmetry_equiv_pos_site_id
 _symmetry_equiv_pos_as_xyz
  1  'x, y, z'
loop_
 _atom_site_type_symbol
 _atom_site_label
 _atom_site_symmetry_multiplicity
 _atom_site_fract_x
 _atom_site_fract_y
 _atom_site_fract_z
 _atom_site_occupancy
  Li  Li0  1  0.00111980  0.50341479  0.55669085  1
  Li  Li1  1  0.50340271  -0.00111954  0.30669054  1
  Li  Li2  1  -0.00112090  0.49658543  0.05669167  1
  Li  Li3  1  0.49659747  0.00111766  0.80669001  1
  Br  Br4  1  0.50016048  -0.00075584  0.05650305  1
  Br  Br5  1  -0.00075594  0.49983510  0.80650287  1
  Br  Br6  1  0.49983666  0.00076546  0.55650286  1
  Br  Br7  1  0.00075972  0.50015696  0.30650302  1
