# generated using pymatgen
data_LiBr
_symmetry_space_group_name_H-M   'P 1'
_cell_length_a   10.04337653
_cell_length_b   10.04288812
_cell_length_c   8.46010594
_cell_angle_alpha   90.00005638
_cell_angle_beta   90.00004609
_cell_angle_gamma   90.00010130
_symmetry_Int_Tables_number   1
_chemical_formula_structural   LiBr
_chemical_formula_sum   'Li16 Br16'
_cell_volume   853.32441392
_cell_formula_units_Z   16
loop_
 _symmetry_equiv_pos_site_id
 _symmetry_equiv_pos_as_xyz
  1  'x, y, z'
loop_
 _atom_site_type_symbol
 _atom_site_label
 _atom_site_symmetry_multiplicity
 _atom_site_fract_x
 _atom_site_fract_y
 _atom_site_fract_z
 _atom_site_occupancy
  Li  Li0  1  0.33038955  0.50025071  0.81457914  1
  Li  Li1  1  0.00024155  0.33038765  0.06446495  1
  Li  Li2  1  0.66961003  0.50024767  0.31457833  1
  Li  Li3  1  0.66961106  0.49974882  0.81457755  1
  Li  Li4  1  -0.00024230  0.66961237  0.06446406  1
  Li  Li5  1  0.49976162  0.83038717  0.06446489  1
  Li  Li6  1  0.50023868  0.16961236  0.06446349  1
  Li  Li7  1  -0.00023841  0.33038771  0.56446427  1
  Li  Li8  1  0.00023878  0.66961266  0.56446347  1
  Li  Li9  1  0.16961065  -0.00024991  0.31457679  1
  Li  Li10  1  0.49975795  0.16961205  0.56446411  1
  Li  Li11  1  0.83038975  0.00025009  0.31457811  1
  Li  Li12  1  0.50024196  0.83038757  0.56446542  1
  Li  Li13  1  0.16960978  0.00024735  0.81457711  1
  Li  Li14  1  0.83039013  -0.00024680  0.81457857  1
  Li  Li15  1  0.33038898  0.49975261  0.31457938  1
  Br  Br16  1  0.49988913  0.30830083  0.81463842  1
  Br  Br17  1  0.80829273  0.49989675  0.06475392  1
  Br  Br18  1  0.50010772  0.30830068  0.31463882  1
  Br  Br19  1  0.50011125  0.69169868  0.81463900  1
  Br  Br20  1  0.19170651  0.50010304  0.06475418  1
  Br  Br21  1  0.69170731  -0.00010043  0.06475303  1
  Br  Br22  1  0.30829302  0.00010037  0.06475219  1
  Br  Br23  1  0.19170681  0.49990008  0.56475401  1
  Br  Br24  1  0.80829362  0.50010040  0.56475300  1
  Br  Br25  1  0.00011028  0.19169956  0.31463867  1
  Br  Br26  1  0.69170746  0.00010309  0.56475346  1
  Br  Br27  1  -0.00011029  0.80830052  0.31463837  1
  Br  Br28  1  0.30829257  -0.00010351  0.56475291  1
  Br  Br29  1  0.00010787  0.80830034  0.81463872  1
  Br  Br30  1  -0.00010750  0.19170020  0.81463858  1
  Br  Br31  1  0.49989175  0.69169935  0.31463941  1
