# generated using pymatgen
data_LiBr
_symmetry_space_group_name_H-M   'P 1'
_cell_length_a   10.30435678
_cell_length_b   10.30434598
_cell_length_c   12.45757262
_cell_angle_alpha   90.01277710
_cell_angle_beta   89.98729258
_cell_angle_gamma   120.01144404
_symmetry_Int_Tables_number   1
_chemical_formula_structural   LiBr
_chemical_formula_sum   'Li18 Br18'
_cell_volume   1145.39496863
_cell_formula_units_Z   18
loop_
 _symmetry_equiv_pos_site_id
 _symmetry_equiv_pos_as_xyz
  1  'x, y, z'
loop_
 _atom_site_type_symbol
 _atom_site_label
 _atom_site_symmetry_multiplicity
 _atom_site_fract_x
 _atom_site_fract_y
 _atom_site_fract_z
 _atom_site_occupancy
  Li  Li0  1  0.25006534  0.00000013  0.48886522  1
  Li  Li1  1  0.25007073  0.25009496  0.98885967  1
  Li  Li2  1  0.33328755  0.41657587  0.65562922  1
  Li  Li3  1  0.08328361  0.66668258  0.65564569  1
  Li  Li4  1  0.66665997  0.58340339  0.82222148  1
  Li  Li5  1  0.00002663  0.25007777  0.48887983  1
  Li  Li6  1  0.08327299  0.41657168  0.15564776  1
  Li  Li7  1  0.33331701  -0.08328452  0.15564606  1
  Li  Li8  1  0.74990397  0.74992819  0.48885919  1
  Li  Li9  1  0.74992122  0.99997323  0.98887999  1
  Li  Li10  1  0.58342403  0.66671236  0.15562925  1
  Li  Li11  1  0.58342851  -0.08327211  0.65564727  1
  Li  Li12  1  0.41657320  0.08322273  0.82222981  1
  Li  Li13  1  0.41659721  0.33333975  0.32222156  1
  Li  Li14  1  0.00000022  0.74993473  0.98886512  1
  Li  Li15  1  0.66663996  0.08324899  0.32223125  1
  Li  Li16  1  0.91675250  0.33336070  0.82223157  1
  Li  Li17  1  0.91677779  0.58342737  0.32222985  1
  Br  Br18  1  0.66667262  0.58158276  0.32219844  1
  Br  Br19  1  0.66655767  0.08503092  0.82225010  1
  Br  Br20  1  0.75174331  0.00001350  0.48888726  1
  Br  Br21  1  0.24825547  0.24820051  0.48888457  1
  Br  Br22  1  0.08513174  0.41842253  0.65554038  1
  Br  Br23  1  0.41848059  0.08509472  0.32222245  1
  Br  Br24  1  0.24831159  0.00011219  -0.01107756  1
  Br  Br25  1  0.75179973  0.75174437  -0.01111582  1
  Br  Br26  1  0.91496961  0.33344212  0.32225090  1
  Br  Br27  1  0.91490478  0.58151887  0.82222225  1
  Br  Br28  1  -0.00001343  0.24825588  -0.01111208  1
  Br  Br29  1  -0.00011217  0.75168903  0.48892255  1
  Br  Br30  1  0.58162498  0.66674763  0.65554821  1
  Br  Br31  1  0.58157807  0.91486835  0.15554004  1
  Br  Br32  1  0.41841774  0.33332794  0.82219878  1
  Br  Br33  1  0.08507542  0.66665236  0.15551843  1
  Br  Br34  1  0.33334732  0.91492352  0.65551863  1
  Br  Br35  1  0.33325253  0.41837501  0.15554829  1
