# generated using pymatgen
data_KI
_symmetry_space_group_name_H-M   'P 1'
_cell_length_a   8.59300173
_cell_length_b   4.98574046
_cell_length_c   8.68705369
_cell_angle_alpha   89.99999778
_cell_angle_beta   89.99999920
_cell_angle_gamma   89.99999198
_symmetry_Int_Tables_number   1
_chemical_formula_structural   KI
_chemical_formula_sum   'K4 I4'
_cell_volume   372.17489289
_cell_formula_units_Z   4
loop_
 _symmetry_equiv_pos_site_id
 _symmetry_equiv_pos_as_xyz
  1  'x, y, z'
loop_
 _atom_site_type_symbol
 _atom_site_label
 _atom_site_symmetry_multiplicity
 _atom_site_fract_x
 _atom_site_fract_y
 _atom_site_fract_z
 _atom_site_occupancy
  K  K0  1  0.24954119  0.75008813  0.36242456  1
  K  K1  1  0.74954137  0.24991171  0.36242485  1
  K  K2  1  0.75045890  0.24991191  0.86242483  1
  K  K3  1  0.25045871  0.75008818  0.86242481  1
  I  I4  1  0.41626632  0.25109790  0.11202697  1
  I  I5  1  0.91626675  0.74890189  0.11202611  1
  I  I6  1  0.58373333  0.74890226  0.61202715  1
  I  I7  1  0.08373343  0.25109802  0.61202640  1
