# generated using pymatgen
data_LiBr
_symmetry_space_group_name_H-M   'P 1'
_cell_length_a   3.89047821
_cell_length_b   3.89041929
_cell_length_c   9.53712017
_cell_angle_alpha   89.99984491
_cell_angle_beta   89.99885219
_cell_angle_gamma   120.00191414
_symmetry_Int_Tables_number   1
_chemical_formula_structural   LiBr
_chemical_formula_sum   'Li3 Br3'
_cell_volume   125.00831659
_cell_formula_units_Z   3
loop_
 _symmetry_equiv_pos_site_id
 _symmetry_equiv_pos_as_xyz
  1  'x, y, z'
loop_
 _atom_site_type_symbol
 _atom_site_label
 _atom_site_symmetry_multiplicity
 _atom_site_fract_x
 _atom_site_fract_y
 _atom_site_fract_z
 _atom_site_occupancy
  Li  Li0  1  0.66741048  -0.00149828  0.36278579  1
  Li  Li1  1  0.00149208  0.66890658  0.69609196  1
  Li  Li2  1  0.33109143  0.33258796  0.02943154  1
  Br  Br3  1  0.00065767  0.66465842  0.19697229  1
  Br  Br4  1  0.33533031  0.33598337  0.53029925  1
  Br  Br5  1  0.66401803  -0.00063803  0.86362167  1
