# generated using pymatgen
data_LiBr
_symmetry_space_group_name_H-M   'P 1'
_cell_length_a   3.88981715
_cell_length_b   3.89011484
_cell_length_c   11.02339233
_cell_angle_alpha   90.01032506
_cell_angle_beta   89.97580653
_cell_angle_gamma   90.00178927
_symmetry_Int_Tables_number   1
_chemical_formula_structural   LiBr
_chemical_formula_sum   'Li4 Br4'
_cell_volume   166.80414058
_cell_formula_units_Z   4
loop_
 _symmetry_equiv_pos_site_id
 _symmetry_equiv_pos_as_xyz
  1  'x, y, z'
loop_
 _atom_site_type_symbol
 _atom_site_label
 _atom_site_symmetry_multiplicity
 _atom_site_fract_x
 _atom_site_fract_y
 _atom_site_fract_z
 _atom_site_occupancy
  Li  Li0  1  -0.00017042  0.50367400  0.36677289  1
  Li  Li1  1  0.50365980  0.00017466  0.11677832  1
  Li  Li2  1  0.00018698  0.49634653  0.86678035  1
  Li  Li3  1  0.49632961  -0.00019588  0.61677462  1
  Br  Br4  1  -0.00176165  0.50008947  0.61691122  1
  Br  Br5  1  0.50009059  0.00176360  0.36690770  1
  Br  Br6  1  0.00175805  0.49990899  0.11690355  1
  Br  Br7  1  0.49990703  -0.00176137  0.86688734  1
