# generated using pymatgen
data_KI
_symmetry_space_group_name_H-M   'P 1'
_cell_length_a   8.59275403
_cell_length_b   4.98290134
_cell_length_c   8.68833206
_cell_angle_alpha   89.99999069
_cell_angle_beta   89.99998638
_cell_angle_gamma   90.00000038
_symmetry_Int_Tables_number   1
_chemical_formula_structural   KI
_chemical_formula_sum   'K4 I4'
_cell_volume   372.00697208
_cell_formula_units_Z   4
loop_
 _symmetry_equiv_pos_site_id
 _symmetry_equiv_pos_as_xyz
  1  'x, y, z'
loop_
 _atom_site_type_symbol
 _atom_site_label
 _atom_site_symmetry_multiplicity
 _atom_site_fract_x
 _atom_site_fract_y
 _atom_site_fract_z
 _atom_site_occupancy
  K  K0  1  0.25031646  0.24734109  0.86368906  1
  K  K1  1  0.75031643  0.75265893  0.86368908  1
  K  K2  1  0.74968358  0.75265892  0.36368907  1
  K  K3  1  0.24968354  0.24734107  0.36368903  1
  I  I4  1  0.91594473  0.25223007  0.61261986  1
  I  I5  1  0.41594472  0.74776993  0.61261979  1
  I  I6  1  0.08405527  0.74776988  0.11261982  1
  I  I7  1  0.58405527  0.25223011  0.11261989  1
