# generated using pymatgen
data_LiI
_symmetry_space_group_name_H-M   'P 1'
_cell_length_a   13.90088497
_cell_length_b   5.29686354
_cell_length_c   7.02867304
_cell_angle_alpha   89.99966786
_cell_angle_beta   89.99976326
_cell_angle_gamma   90.00002289
_symmetry_Int_Tables_number   1
_chemical_formula_structural   LiI
_chemical_formula_sum   'Li8 I8'
_cell_volume   517.52886222
_cell_formula_units_Z   8
loop_
 _symmetry_equiv_pos_site_id
 _symmetry_equiv_pos_as_xyz
  1  'x, y, z'
loop_
 _atom_site_type_symbol
 _atom_site_label
 _atom_site_symmetry_multiplicity
 _atom_site_fract_x
 _atom_site_fract_y
 _atom_site_fract_z
 _atom_site_occupancy
  Li  Li0  1  0.82902341  0.75124803  0.68296462  1
  Li  Li1  1  0.32902048  0.74875878  0.68296052  1
  Li  Li2  1  0.17097399  0.75126194  0.18296484  1
  Li  Li3  1  0.17097876  0.24875892  0.68295795  1
  Li  Li4  1  0.82902621  0.24873502  0.18296735  1
  Li  Li5  1  0.67098218  0.25124394  0.68296051  1
  Li  Li6  1  0.67097664  0.74874204  0.18296470  1
  Li  Li7  1  0.32902089  0.25126183  0.18296393  1
  I  I8  1  0.36846377  0.75107454  0.29443873  1
  I  I9  1  0.86846485  0.74892266  0.29444236  1
  I  I10  1  0.63153530  0.75106766  0.79444446  1
  I  I11  1  0.63153514  0.24892418  0.29444534  1
  I  I12  1  0.36846468  0.24892913  0.79444024  1
  I  I13  1  0.13153266  0.25107284  0.29444316  1
  I  I14  1  0.13153472  0.74892850  0.79444415  1
  I  I15  1  0.86846630  0.25106999  0.79444232  1
