# generated using pymatgen
data_LiBr
_symmetry_space_group_name_H-M   'P 1'
_cell_length_a   4.16111560
_cell_length_b   4.16113535
_cell_length_c   10.23900420
_cell_angle_alpha   90.00304641
_cell_angle_beta   89.99981874
_cell_angle_gamma   120.00159072
_symmetry_Int_Tables_number   1
_chemical_formula_structural   LiBr
_chemical_formula_sum   'Li3 Br3'
_cell_volume   153.53345173
_cell_formula_units_Z   3
loop_
 _symmetry_equiv_pos_site_id
 _symmetry_equiv_pos_as_xyz
  1  'x, y, z'
loop_
 _atom_site_type_symbol
 _atom_site_label
 _atom_site_symmetry_multiplicity
 _atom_site_fract_x
 _atom_site_fract_y
 _atom_site_fract_z
 _atom_site_occupancy
  Li  Li0  1  0.00111860  0.65917839  0.74972088  1
  Li  Li1  1  0.34084568  0.34196736  0.08305439  1
  Li  Li2  1  0.65803483  -0.00111427  0.41639044  1
  Br  Br3  1  0.00770754  0.67418538  0.99899231  1
  Br  Br4  1  0.32579164  0.33348852  0.33232659  1
  Br  Br5  1  0.66650171  -0.00770538  0.66566038  1
