# generated using pymatgen
data_NaI
_symmetry_space_group_name_H-M   'P 1'
_cell_length_a   4.61874976
_cell_length_b   9.24232999
_cell_length_c   6.52138226
_cell_angle_alpha   89.99989298
_cell_angle_beta   90.00015898
_cell_angle_gamma   89.99999736
_symmetry_Int_Tables_number   1
_chemical_formula_structural   NaI
_chemical_formula_sum   'Na4 I4'
_cell_volume   278.38482707
_cell_formula_units_Z   4
loop_
 _symmetry_equiv_pos_site_id
 _symmetry_equiv_pos_as_xyz
  1  'x, y, z'
loop_
 _atom_site_type_symbol
 _atom_site_label
 _atom_site_symmetry_multiplicity
 _atom_site_fract_x
 _atom_site_fract_y
 _atom_site_fract_z
 _atom_site_occupancy
  Na  Na0  1  0.50015442  0.12428584  0.75100636  1
  Na  Na1  1  0.49984537  0.62428556  0.74899400  1
  Na  Na2  1  -0.00015405  0.87571457  0.25101816  1
  Na  Na3  1  0.00015427  0.37571434  0.24898154  1
  I  I4  1  0.50137214  0.62557099  0.24928478  1
  I  I5  1  0.49862787  0.12557086  0.25071342  1
  I  I6  1  0.99862702  0.37442895  0.74927861  1
  I  I7  1  0.00137297  0.87442889  0.75072313  1
