# generated using pymatgen
data_NaI
_symmetry_space_group_name_H-M   'P 1'
_cell_length_a   15.01213916
_cell_length_b   15.01213170
_cell_length_c   6.47075963
_cell_angle_alpha   89.99997862
_cell_angle_beta   89.99997878
_cell_angle_gamma   120.06161869
_symmetry_Int_Tables_number   1
_chemical_formula_structural   NaI
_chemical_formula_sum   'Na12 I12'
_cell_volume   1262.12059499
_cell_formula_units_Z   12
loop_
 _symmetry_equiv_pos_site_id
 _symmetry_equiv_pos_as_xyz
  1  'x, y, z'
loop_
 _atom_site_type_symbol
 _atom_site_label
 _atom_site_symmetry_multiplicity
 _atom_site_fract_x
 _atom_site_fract_y
 _atom_site_fract_z
 _atom_site_occupancy
  Na  Na0  1  0.33903407  0.46047232  0.25043161  1
  Na  Na1  1  0.87865337  0.33907488  0.25044093  1
  Na  Na2  1  0.87841632  0.53928520  0.74962952  1
  Na  Na3  1  0.33907468  0.87865331  0.74955359  1
  Na  Na4  1  0.66092506  0.12134676  0.74955920  1
  Na  Na5  1  0.53952764  0.66096603  0.74956826  1
  Na  Na6  1  0.12158386  0.46071497  0.74963812  1
  Na  Na7  1  0.46047263  0.33903399  0.74956805  1
  Na  Na8  1  0.53928517  0.87841633  0.25036190  1
  Na  Na9  1  0.66096597  0.53952748  0.25043173  1
  Na  Na10  1  0.12134653  0.66092531  0.25044646  1
  Na  Na11  1  0.46071463  0.12158350  0.25037051  1
  I  I12  1  0.87645396  0.32687316  0.74973028  1
  I  I13  1  0.54932744  0.87629258  0.74966490  1
  I  I14  1  0.54964551  0.67316637  0.25027682  1
  I  I15  1  0.87629258  0.54932745  0.25032493  1
  I  I16  1  0.12370764  0.45067287  0.25033515  1
  I  I17  1  0.67312680  0.12354620  0.25026983  1
  I  I18  1  0.45035472  0.32683346  0.25027766  1
  I  I19  1  0.32687295  0.87645377  0.25026998  1
  I  I20  1  0.67316638  0.54964509  0.74972222  1
  I  I21  1  0.12354606  0.67312702  0.74973010  1
  I  I22  1  0.45067215  0.12370720  0.74967512  1
  I  I23  1  0.32683386  0.45035475  0.74972311  1
