# generated using pymatgen
data_LiBr
_symmetry_space_group_name_H-M   'P 1'
_cell_length_a   3.89541195
_cell_length_b   5.49905877
_cell_length_c   7.79563140
_cell_angle_alpha   89.99999839
_cell_angle_beta   89.99999653
_cell_angle_gamma   89.99999678
_symmetry_Int_Tables_number   1
_chemical_formula_structural   LiBr
_chemical_formula_sum   'Li4 Br4'
_cell_volume   166.99099395
_cell_formula_units_Z   4
loop_
 _symmetry_equiv_pos_site_id
 _symmetry_equiv_pos_as_xyz
  1  'x, y, z'
loop_
 _atom_site_type_symbol
 _atom_site_label
 _atom_site_symmetry_multiplicity
 _atom_site_fract_x
 _atom_site_fract_y
 _atom_site_fract_z
 _atom_site_occupancy
  Li  Li0  1  0.74898590  0.49897372  0.12691834  1
  Li  Li1  1  0.25101355  0.99897459  0.37308263  1
  Li  Li2  1  0.75101420  0.50102626  0.62691701  1
  Li  Li3  1  0.24898629  0.00102542  0.87308223  1
  Br  Br4  1  0.74982390  -0.00000907  0.62442451  1
  Br  Br5  1  0.25017662  0.49999086  0.87557509  1
  Br  Br6  1  0.75017608  0.00000909  0.12442482  1
  Br  Br7  1  0.24982345  0.50000914  0.37557536  1
