# generated using pymatgen
data_NaBr
_symmetry_space_group_name_H-M   'P 1'
_cell_length_a   9.82138254
_cell_length_b   9.80940492
_cell_length_c   9.07300117
_cell_angle_alpha   89.99977235
_cell_angle_beta   89.99957354
_cell_angle_gamma   119.99969994
_symmetry_Int_Tables_number   1
_chemical_formula_structural   NaBr
_chemical_formula_sum   'Na6 Br6'
_cell_volume   757.00404601
_cell_formula_units_Z   6
loop_
 _symmetry_equiv_pos_site_id
 _symmetry_equiv_pos_as_xyz
  1  'x, y, z'
loop_
 _atom_site_type_symbol
 _atom_site_label
 _atom_site_symmetry_multiplicity
 _atom_site_fract_x
 _atom_site_fract_y
 _atom_site_fract_z
 _atom_site_occupancy
  Na  Na0  1  0.69987846  0.14911803  0.25644404  1
  Na  Na1  1  0.55011104  0.69936313  0.92313257  1
  Na  Na2  1  0.44990542  0.30067016  0.92316260  1
  Na  Na3  1  0.14943290  0.45011850  0.58932382  1
  Na  Na4  1  0.85053957  0.54986320  0.58930757  1
  Na  Na5  1  0.30013319  0.85087657  0.25643216  1
  Br  Br6  1  0.16968828  0.74069345  0.52889944  1
  Br  Br7  1  0.43110209  0.17097940  0.19583997  1
  Br  Br8  1  0.56891523  0.82902333  0.19582474  1
  Br  Br9  1  0.74008610  0.56997816  0.86171085  1
  Br  Br10  1  0.25992456  0.43004098  0.86171904  1
  Br  Br11  1  0.83028317  0.25927509  0.52892659  1
