# generated using pymatgen
data_LiI
_symmetry_space_group_name_H-M   'P 1'
_cell_length_a   8.51352051
_cell_length_b   8.51352182
_cell_length_c   12.01853549
_cell_angle_alpha   89.99996317
_cell_angle_beta   90.00007726
_cell_angle_gamma   90.00000447
_symmetry_Int_Tables_number   1
_chemical_formula_structural   LiI
_chemical_formula_sum   'Li16 I16'
_cell_volume   871.10396467
_cell_formula_units_Z   16
loop_
 _symmetry_equiv_pos_site_id
 _symmetry_equiv_pos_as_xyz
  1  'x, y, z'
loop_
 _atom_site_type_symbol
 _atom_site_label
 _atom_site_symmetry_multiplicity
 _atom_site_fract_x
 _atom_site_fract_y
 _atom_site_fract_z
 _atom_site_occupancy
  Li  Li0  1  0.49971567  0.24899612  0.62455614  1
  Li  Li1  1  0.24899657  0.50028543  0.37544410  1
  Li  Li2  1  0.49971772  0.75100474  0.12455806  1
  Li  Li3  1  0.74899737  0.00028089  0.87544240  1
  Li  Li4  1  -0.00028241  0.25099850  0.62455830  1
  Li  Li5  1  0.25100414  -0.00028464  0.87544258  1
  Li  Li6  1  -0.00028304  0.74899941  0.12455668  1
  Li  Li7  1  0.00028379  0.25100191  0.12455688  1
  Li  Li8  1  0.25100071  0.00028209  0.37544076  1
  Li  Li9  1  0.00028773  0.74899514  0.62455607  1
  Li  Li10  1  0.74899536  -0.00028143  0.37544241  1
  Li  Li11  1  0.50028637  0.75100344  0.62455641  1
  Li  Li12  1  0.75100157  0.49971473  0.37544368  1
  Li  Li13  1  0.75100370  0.50028067  0.87544141  1
  Li  Li14  1  0.50028316  0.24900117  0.12455843  1
  Li  Li15  1  0.24899227  0.49971693  0.87544339  1
  I  I16  1  0.75020939  -0.00082015  0.62504225  1
  I  I17  1  -0.00081977  0.24979094  0.37495788  1
  I  I18  1  0.75020870  0.00082032  0.12504221  1
  I  I19  1  0.49917921  0.74979136  0.87495729  1
  I  I20  1  0.25020920  0.50081985  0.62504251  1
  I  I21  1  0.50082033  0.25020927  0.87495795  1
  I  I22  1  0.25020866  0.49918149  0.12504288  1
  I  I23  1  0.74979147  0.50082020  0.12504299  1
  I  I24  1  0.50081927  0.74979160  0.37495782  1
  I  I25  1  0.74979155  0.49917959  0.62504234  1
  I  I26  1  0.49917908  0.25020942  0.37495821  1
  I  I27  1  0.24979159  0.00082015  0.62504174  1
  I  I28  1  0.00081862  0.75020901  0.37495828  1
  I  I29  1  0.00082057  0.24979169  0.87495815  1
  I  I30  1  0.24979179  -0.00081919  0.12504220  1
  I  I31  1  -0.00082029  0.75020935  0.87495762  1
