# generated using pymatgen
data_LiI
_symmetry_space_group_name_H-M   'P 1'
_cell_length_a   7.11698047
_cell_length_b   5.31027513
_cell_length_c   14.25904855
_cell_angle_alpha   89.99823980
_cell_angle_beta   90.00432113
_cell_angle_gamma   90.00362573
_symmetry_Int_Tables_number   1
_chemical_formula_structural   LiI
_chemical_formula_sum   'Li8 I8'
_cell_volume   538.89399236
_cell_formula_units_Z   8
loop_
 _symmetry_equiv_pos_site_id
 _symmetry_equiv_pos_as_xyz
  1  'x, y, z'
loop_
 _atom_site_type_symbol
 _atom_site_label
 _atom_site_symmetry_multiplicity
 _atom_site_fract_x
 _atom_site_fract_y
 _atom_site_fract_z
 _atom_site_occupancy
  Li  Li0  1  0.10465715  0.24052024  0.32114636  1
  Li  Li1  1  0.10463498  0.25946348  0.82116751  1
  Li  Li2  1  0.60459105  0.25946497  0.67885111  1
  Li  Li3  1  0.39538331  0.75948292  0.82116561  1
  Li  Li4  1  0.89536434  0.74053524  0.17882918  1
  Li  Li5  1  0.39541574  0.74053434  0.32115407  1
  Li  Li6  1  0.60461691  0.24051709  0.17883842  1
  Li  Li7  1  0.89534642  0.75948126  0.67884805  1
  I  I8  1  0.99013326  0.24096037  0.13312217  1
  I  I9  1  0.99010399  0.25904559  0.63313368  1
  I  I10  1  0.49015509  0.25903928  0.86688206  1
  I  I11  1  0.50980870  0.75904505  0.63313219  1
  I  I12  1  0.00989660  0.74095675  0.36686123  1
  I  I13  1  0.50984007  0.74096154  0.13312283  1
  I  I14  1  0.49019095  0.24095395  0.36687274  1
  I  I15  1  0.00986146  0.75903793  0.86687278  1
