# generated using pymatgen
data_LiBr
_symmetry_space_group_name_H-M   'P 1'
_cell_length_a   11.29229612
_cell_length_b   11.29231122
_cell_length_c   8.04017142
_cell_angle_alpha   89.98095329
_cell_angle_beta   90.01911869
_cell_angle_gamma   119.98251565
_symmetry_Int_Tables_number   1
_chemical_formula_structural   LiBr
_chemical_formula_sum   'Li18 Br18'
_cell_volume   888.05015294
_cell_formula_units_Z   18
loop_
 _symmetry_equiv_pos_site_id
 _symmetry_equiv_pos_as_xyz
  1  'x, y, z'
loop_
 _atom_site_type_symbol
 _atom_site_label
 _atom_site_symmetry_multiplicity
 _atom_site_fract_x
 _atom_site_fract_y
 _atom_site_fract_z
 _atom_site_occupancy
  Li  Li0  1  0.13286347  0.26262010  0.58058557  1
  Li  Li1  1  0.13276456  0.87013971  0.08053252  1
  Li  Li2  1  0.07073686  0.53381721  0.74752173  1
  Li  Li3  1  0.46313175  -0.07074752  0.74731038  1
  Li  Li4  1  0.40404435  0.20358132  0.91390753  1
  Li  Li5  1  0.73739429  0.87019212  0.58038819  1
  Li  Li6  1  0.46317283  0.53390522  0.24749539  1
  Li  Li7  1  0.07074538  0.53686519  0.24732102  1
  Li  Li8  1  0.12985882  0.86723552  0.58053273  1
  Li  Li9  1  0.12980571  0.26260499  0.08038656  1
  Li  Li10  1  0.46618178  -0.07073886  0.24750988  1
  Li  Li11  1  0.46609072  0.53682399  0.74749413  1
  Li  Li12  1  0.79646464  0.20048196  0.91406154  1
  Li  Li13  1  0.79642078  0.59595567  0.41390951  1
  Li  Li14  1  0.73738248  0.86713572  0.08058712  1
  Li  Li15  1  0.40404301  0.20041792  0.41411660  1
  Li  Li16  1  0.79958518  0.59595698  0.91411730  1
  Li  Li17  1  0.79952014  0.20354029  0.41405703  1
  Br  Br18  1  0.54761540  0.09250560  0.48947471  1
  Br  Br19  1  0.54763227  0.45515582  -0.01061978  1
  Br  Br20  1  0.24084753  0.11899951  0.65606397  1
  Br  Br21  1  0.87810925  0.75914285  0.65616464  1
  Br  Br22  1  0.57421966  0.78859003  0.82278779  1
  Br  Br23  1  0.90751380  0.45517027  0.48957408  1
  Br  Br24  1  0.87810762  0.11898731  0.15595916  1
  Br  Br25  1  0.24085995  0.12189087  0.15616040  1
  Br  Br26  1  0.54484486  0.45236796  0.48938108  1
  Br  Br27  1  0.54483142  0.09248720  -0.01043203  1
  Br  Br28  1  0.88099955  0.75915156  0.15606488  1
  Br  Br29  1  0.88100722  0.12188940  0.65596118  1
  Br  Br30  1  0.21142263  0.78566339  0.82257221  1
  Br  Br31  1  0.21141078  0.42577853  0.32278692  1
  Br  Br32  1  0.90749371  0.45238153  -0.01052014  1
  Br  Br33  1  0.57419095  0.78565953  0.32269782  1
  Br  Br34  1  0.21434330  0.42580889  0.82269850  1
  Br  Br35  1  0.21434336  0.78858219  0.32257387  1
