# generated using pymatgen
data_NaBr
_symmetry_space_group_name_H-M   'P 1'
_cell_length_a   13.16840640
_cell_length_b   12.34547046
_cell_length_c   9.27448700
_cell_angle_alpha   89.99985325
_cell_angle_beta   89.99965603
_cell_angle_gamma   89.99987522
_symmetry_Int_Tables_number   1
_chemical_formula_structural   NaBr
_chemical_formula_sum   'Na16 Br16'
_cell_volume   1507.75494951
_cell_formula_units_Z   16
loop_
 _symmetry_equiv_pos_site_id
 _symmetry_equiv_pos_as_xyz
  1  'x, y, z'
loop_
 _atom_site_type_symbol
 _atom_site_label
 _atom_site_symmetry_multiplicity
 _atom_site_fract_x
 _atom_site_fract_y
 _atom_site_fract_z
 _atom_site_occupancy
  Na  Na0  1  0.85118563  -0.00027901  0.48939410  1
  Na  Na1  1  0.14881380  0.00027774  0.48939804  1
  Na  Na2  1  0.39881443  0.24972199  0.73939770  1
  Na  Na3  1  0.64881358  0.00027836  -0.01060302  1
  Na  Na4  1  0.89881446  0.24972166  0.23939745  1
  Na  Na5  1  0.10118624  0.25027892  0.73939323  1
  Na  Na6  1  0.35118544  -0.00027860  -0.01060488  1
  Na  Na7  1  0.89881424  0.74972194  0.73939808  1
  Na  Na8  1  0.10118612  0.75027871  0.23939382  1
  Na  Na9  1  0.35118570  0.49972131  0.48939433  1
  Na  Na10  1  0.64881400  0.50027838  0.48939661  1
  Na  Na11  1  0.39881443  0.74972203  0.23939777  1
  Na  Na12  1  0.60118641  0.25027899  0.23939366  1
  Na  Na13  1  0.60118624  0.75027900  0.73939362  1
  Na  Na14  1  0.85118566  0.49972091  -0.01060629  1
  Na  Na15  1  0.14881386  0.50027809  -0.01060278  1
  Br  Br16  1  0.00032338  0.32750542  -0.01017306  1
  Br  Br17  1  -0.00032412  0.67249358  -0.01017058  1
  Br  Br18  1  0.24967759  0.57750617  0.23982622  1
  Br  Br19  1  0.49967611  0.67249399  0.48982911  1
  Br  Br20  1  0.74967738  0.57750615  0.73982605  1
  Br  Br21  1  0.25032305  0.92249417  0.23982885  1
  Br  Br22  1  0.50032346  0.32750591  0.48982721  1
  Br  Br23  1  0.74967735  0.07750600  0.23982624  1
  Br  Br24  1  0.25032321  0.42249430  0.73982803  1
  Br  Br25  1  0.50032308  0.82750598  -0.01017293  1
  Br  Br26  1  0.49967583  0.17249415  -0.01017046  1
  Br  Br27  1  0.24967741  0.07750622  0.73982696  1
  Br  Br28  1  0.75032323  0.92249449  0.73982819  1
  Br  Br29  1  0.75032352  0.42249421  0.23982787  1
  Br  Br30  1  0.00032310  0.82750535  0.48982743  1
  Br  Br31  1  -0.00032382  0.17249345  0.48982881  1
