# generated using pymatgen
data_LiBr
_symmetry_space_group_name_H-M   'P 1'
_cell_length_a   10.07714550
_cell_length_b   10.07714602
_cell_length_c   10.06530396
_cell_angle_alpha   90.00000316
_cell_angle_beta   89.99999493
_cell_angle_gamma   90.00001360
_symmetry_Int_Tables_number   1
_chemical_formula_structural   LiBr
_chemical_formula_sum   'Li16 Br16'
_cell_volume   1022.12020917
_cell_formula_units_Z   16
loop_
 _symmetry_equiv_pos_site_id
 _symmetry_equiv_pos_as_xyz
  1  'x, y, z'
loop_
 _atom_site_type_symbol
 _atom_site_label
 _atom_site_symmetry_multiplicity
 _atom_site_fract_x
 _atom_site_fract_y
 _atom_site_fract_z
 _atom_site_occupancy
  Li  Li0  1  0.29983887  0.12653202  0.62810469  1
  Li  Li1  1  0.87346710  0.29984013  0.62810461  1
  Li  Li2  1  0.70015997  0.12653237  0.37189575  1
  Li  Li3  1  0.62653251  0.20016000  0.87189522  1
  Li  Li4  1  0.79983972  0.37346783  0.12810460  1
  Li  Li5  1  0.37346699  0.79984189  0.87189541  1
  Li  Li6  1  0.20016165  0.37346869  0.87189471  1
  Li  Li7  1  0.79984106  0.62653311  0.87189532  1
  Li  Li8  1  0.62653322  0.79984142  0.12810419  1
  Li  Li9  1  0.20015910  0.62653282  0.12810540  1
  Li  Li10  1  0.37346800  0.20016110  0.12810535  1
  Li  Li11  1  0.70015915  0.87346670  0.62810447  1
  Li  Li12  1  0.12653327  0.70015818  0.62810434  1
  Li  Li13  1  0.87346706  0.70015897  0.37189559  1
  Li  Li14  1  0.29984136  0.87346681  0.37189492  1
  Li  Li15  1  0.12653234  0.29983921  0.37189543  1
  Br  Br16  1  0.62578798  0.81518466  0.86751052  1
  Br  Br17  1  0.18481539  0.62578835  0.86751101  1
  Br  Br18  1  0.37421264  0.81518383  0.13248924  1
  Br  Br19  1  0.31518462  0.87421106  0.63248908  1
  Br  Br20  1  0.12578792  0.68481592  0.36751064  1
  Br  Br21  1  0.68481608  0.12578769  0.63248933  1
  Br  Br22  1  0.87421249  0.68481603  0.63248938  1
  Br  Br23  1  0.12578794  0.31518433  0.63248911  1
  Br  Br24  1  0.31518322  0.12578713  0.36751058  1
  Br  Br25  1  0.87421128  0.31518477  0.36751089  1
  Br  Br26  1  0.68481526  0.87421156  0.36751092  1
  Br  Br27  1  0.37421170  0.18481472  0.86751079  1
  Br  Br28  1  0.81518350  0.37421291  0.86751063  1
  Br  Br29  1  0.18481556  0.37421218  0.13248944  1
  Br  Br30  1  0.62578796  0.18481506  0.13248911  1
  Br  Br31  1  0.81518508  0.62578857  0.13248932  1
