# generated using pymatgen
data_LiBr
_symmetry_space_group_name_H-M   'P 1'
_cell_length_a   5.50142201
_cell_length_b   5.50693589
_cell_length_c   5.50818401
_cell_angle_alpha   89.99999814
_cell_angle_beta   89.99998958
_cell_angle_gamma   89.99999982
_symmetry_Int_Tables_number   1
_chemical_formula_structural   LiBr
_chemical_formula_sum   'Li4 Br4'
_cell_volume   166.87582310
_cell_formula_units_Z   4
loop_
 _symmetry_equiv_pos_site_id
 _symmetry_equiv_pos_as_xyz
  1  'x, y, z'
loop_
 _atom_site_type_symbol
 _atom_site_label
 _atom_site_symmetry_multiplicity
 _atom_site_fract_x
 _atom_site_fract_y
 _atom_site_fract_z
 _atom_site_occupancy
  Li  Li0  1  0.49900843  0.24884734  0.21406401  1
  Li  Li1  1  -0.00099135  0.75115275  0.21406563  1
  Li  Li2  1  0.50099218  0.75115746  0.71405960  1
  Li  Li3  1  0.00099179  0.24884246  0.71405692  1
  Br  Br4  1  0.49969848  0.25030907  0.71527984  1
  Br  Br5  1  -0.00030142  0.74969092  0.71528036  1
  Br  Br6  1  0.50030098  0.74969210  0.21528013  1
  Br  Br7  1  0.00030091  0.25030790  0.21527930  1
