# generated using pymatgen
data_NaI
_symmetry_space_group_name_H-M   'P 1'
_cell_length_a   9.33793065
_cell_length_b   9.33789148
_cell_length_c   8.39779420
_cell_angle_alpha   89.99977187
_cell_angle_beta   89.99977272
_cell_angle_gamma   89.99913722
_symmetry_Int_Tables_number   1
_chemical_formula_structural   NaI
_chemical_formula_sum   'Na8 I8'
_cell_volume   732.25895899
_cell_formula_units_Z   8
loop_
 _symmetry_equiv_pos_site_id
 _symmetry_equiv_pos_as_xyz
  1  'x, y, z'
loop_
 _atom_site_type_symbol
 _atom_site_label
 _atom_site_symmetry_multiplicity
 _atom_site_fract_x
 _atom_site_fract_y
 _atom_site_fract_z
 _atom_site_occupancy
  Na  Na0  1  0.49999610  0.71179836  0.75135262  1
  Na  Na1  1  0.78820181  0.00000324  0.74864779  1
  Na  Na2  1  0.50000565  0.28819434  0.75136617  1
  Na  Na3  1  0.28819026  0.49999423  0.24862617  1
  Na  Na4  1  0.71179553  0.50000577  0.24865495  1
  Na  Na5  1  0.00000633  0.21180911  0.25137323  1
  Na  Na6  1  0.21180639  -0.00000460  0.74863277  1
  Na  Na7  1  -0.00000679  0.78820461  0.25134560  1
  I  I8  1  0.25078841  0.74998885  0.49990041  1
  I  I9  1  0.75001145  0.24921152  0.00009989  1
  I  I10  1  0.74919900  0.24999418  0.49991417  1
  I  I11  1  0.25000980  0.25080084  0.50009270  1
  I  I12  1  0.75000214  0.74921025  0.50009313  1
  I  I13  1  0.24920014  0.24999151  -0.00009307  1
  I  I14  1  0.25000462  0.75080154  0.00008598  1
  I  I15  1  0.75078914  0.74999625  -0.00009250  1
