# generated using pymatgen
data_LiI
_symmetry_space_group_name_H-M   'P 1'
_cell_length_a   12.58629655
_cell_length_b   12.58629520
_cell_length_c   8.67655718
_cell_angle_alpha   90.00486158
_cell_angle_beta   89.99506244
_cell_angle_gamma   120.00315028
_symmetry_Int_Tables_number   1
_chemical_formula_structural   LiI
_chemical_formula_sum   'Li18 I18'
_cell_volume   1190.31018361
_cell_formula_units_Z   18
loop_
 _symmetry_equiv_pos_site_id
 _symmetry_equiv_pos_as_xyz
  1  'x, y, z'
loop_
 _atom_site_type_symbol
 _atom_site_label
 _atom_site_symmetry_multiplicity
 _atom_site_fract_x
 _atom_site_fract_y
 _atom_site_fract_z
 _atom_site_occupancy
  Li  Li0  1  0.53632009  0.46581889  0.07851784  1
  Li  Li1  1  0.53633864  0.07050943  0.57853494  1
  Li  Li2  1  0.86762406  0.13043612  0.24535195  1
  Li  Li3  1  0.26281463  0.13239636  0.24539800  1
  Li  Li4  1  0.20082662  0.40381646  0.41145420  1
  Li  Li5  1  0.53415054  0.07049210  0.07854522  1
  Li  Li6  1  0.26280292  0.13043172  0.74538026  1
  Li  Li7  1  0.86760147  0.73718562  0.74539444  1
  Li  Li8  1  0.92949155  0.46366242  0.07853730  1
  Li  Li9  1  0.92950827  0.46584779  0.57854558  1
  Li  Li10  1  0.86956433  0.13237634  0.74535485  1
  Li  Li11  1  0.86956720  0.73719895  0.24537770  1
  Li  Li12  1  0.59616807  0.79701122  0.41144681  1
  Li  Li13  1  0.59618102  0.79917459  0.91145383  1
  Li  Li14  1  0.53418316  0.46368211  0.57851770  1
  Li  Li15  1  0.20083972  0.79702730  0.91145045  1
  Li  Li16  1  0.20296929  0.79915863  0.41145196  1
  Li  Li17  1  0.20299015  0.40383044  0.91144685  1
  I  I18  1  0.42741130  0.21427865  0.00542092  1
  I  I19  1  0.42742412  0.21312465  0.50542753  1
  I  I20  1  0.11903540  0.23917039  0.17174375  1
  I  I21  1  0.12014561  0.88097466  0.17178900  1
  I  I22  1  0.45237261  0.54644187  0.33858095  1
  I  I23  1  0.78570278  0.21311783  0.00543267  1
  I  I24  1  0.12014471  0.23916563  0.67174872  1
  I  I25  1  0.11902412  -0.12014609  0.67178944  1
  I  I26  1  0.78687685  0.57257781  0.00542639  1
  I  I27  1  0.78688382  0.21429649  0.50543296  1
  I  I28  1  0.76082739  0.88096456  0.67174313  1
  I  I29  1  0.76083236  -0.12014400  0.17174800  1
  I  I30  1  0.45354755  0.90591168  0.33857629  1
  I  I31  1  0.45355864  0.54762849  0.83858116  1
  I  I32  1  0.78572310  0.57258887  0.50541861  1
  I  I33  1  0.45237336  0.90591598  0.83856567  1
  I  I34  1  0.09408592  0.54762574  0.33856643  1
  I  I35  1  0.09408865  0.54645031  0.83857691  1
