# generated using pymatgen
data_LiBr
_symmetry_space_group_name_H-M   'P 1'
_cell_length_a   11.48212154
_cell_length_b   11.48202026
_cell_length_c   7.93881191
_cell_angle_alpha   89.96551729
_cell_angle_beta   90.03482171
_cell_angle_gamma   119.95412778
_symmetry_Int_Tables_number   1
_chemical_formula_structural   LiBr
_chemical_formula_sum   'Li18 Br18'
_cell_volume   906.83244230
_cell_formula_units_Z   18
loop_
 _symmetry_equiv_pos_site_id
 _symmetry_equiv_pos_as_xyz
  1  'x, y, z'
loop_
 _atom_site_type_symbol
 _atom_site_label
 _atom_site_symmetry_multiplicity
 _atom_site_fract_x
 _atom_site_fract_y
 _atom_site_fract_z
 _atom_site_occupancy
  Li  Li0  1  0.13040384  0.86989359  0.18144092  1
  Li  Li1  1  0.13038571  0.26041308  0.68134563  1
  Li  Li2  1  0.46340685  0.53624439  0.34807627  1
  Li  Li3  1  0.07295498  0.53663146  0.34801049  1
  Li  Li4  1  0.79670185  0.59370646  0.51456664  1
  Li  Li5  1  0.13007382  0.26039079  0.18135530  1
  Li  Li6  1  0.07293203  0.53626233  0.84799928  1
  Li  Li7  1  0.46337138  0.92704840  0.84800742  1
  Li  Li8  1  0.73958666  0.86961445  0.18134402  1
  Li  Li9  1  0.73961092  0.86992629  0.68135455  1
  Li  Li10  1  0.46375655  0.53659393  0.84807603  1
  Li  Li11  1  0.46373938  0.92706938  0.34799678  1
  Li  Li12  1  0.40627512  0.20293090  0.51455789  1
  Li  Li13  1  0.40629381  0.20329903  0.01456500  1
  Li  Li14  1  0.13010722  0.86959625  0.68144126  1
  Li  Li15  1  0.79674216  0.20291356  0.01460268  1
  Li  Li16  1  0.79708956  0.20326110  0.51460491  1
  Li  Li17  1  0.79707005  0.59372562  0.01455936  1
  Br  Br18  1  0.54605536  0.09225819  0.08837568  1
  Br  Br19  1  0.54601913  0.45387115  0.58831997  1
  Br  Br20  1  0.24110130  0.12061455  0.25490370  1
  Br  Br21  1  0.87944921  0.75889592  0.25492075  1
  Br  Br22  1  0.57443946  0.78720256  0.42169430  1
  Br  Br23  1  0.90774340  0.45385500  0.08839978  1
  Br  Br24  1  0.87944176  0.12064332  0.75481161  1
  Br  Br25  1  0.24110192  0.12054891  0.75492089  1
  Br  Br26  1  0.54612713  0.45397886  0.08831990  1
  Br  Br27  1  0.54614454  0.09225632  0.58839499  1
  Br  Br28  1  0.87938438  0.75889691  0.75490359  1
  Br  Br29  1  0.87935527  0.12055694  0.25481104  1
  Br  Br30  1  0.21278954  0.78732765  0.42162857  1
  Br  Br31  1  0.21279585  0.42555820  0.92169364  1
  Br  Br32  1  0.90774160  0.45394385  0.58838013  1
  Br  Br33  1  0.57443554  0.78729850  0.92167464  1
  Br  Br34  1  0.21269987  0.42556209  0.42167406  1
  Br  Br35  1  0.21267284  0.78721008  0.92162865  1
