# generated using pymatgen
data_LiBr
_symmetry_space_group_name_H-M   'P 1'
_cell_length_a   4.25261141
_cell_length_b   4.25250961
_cell_length_c   9.59042925
_cell_angle_alpha   90.00107059
_cell_angle_beta   90.00014511
_cell_angle_gamma   120.00121958
_symmetry_Int_Tables_number   1
_chemical_formula_structural   LiBr
_chemical_formula_sum   'Li3 Br3'
_cell_volume   150.19806718
_cell_formula_units_Z   3
loop_
 _symmetry_equiv_pos_site_id
 _symmetry_equiv_pos_as_xyz
  1  'x, y, z'
loop_
 _atom_site_type_symbol
 _atom_site_label
 _atom_site_symmetry_multiplicity
 _atom_site_fract_x
 _atom_site_fract_y
 _atom_site_fract_z
 _atom_site_occupancy
  Li  Li0  1  0.33763437  0.33790805  0.32700793  1
  Li  Li1  1  0.66207658  -0.00029110  -0.00632091  1
  Li  Li2  1  0.00028007  0.66236378  0.66035021  1
  Br  Br3  1  0.33360366  0.32958884  0.58891843  1
  Br  Br4  1  0.67042162  0.00402574  0.25558665  1
  Br  Br5  1  -0.00401631  0.66640469  0.92224625  1
