# generated using pymatgen
data_LiBr
_symmetry_space_group_name_H-M   'P 1'
_cell_length_a   11.21256058
_cell_length_b   11.21257502
_cell_length_c   8.08420753
_cell_angle_alpha   90.02059836
_cell_angle_beta   89.97925440
_cell_angle_gamma   120.00557664
_symmetry_Int_Tables_number   1
_chemical_formula_structural   LiBr
_chemical_formula_sum   'Li18 Br18'
_cell_volume   880.14414524
_cell_formula_units_Z   18
loop_
 _symmetry_equiv_pos_site_id
 _symmetry_equiv_pos_as_xyz
  1  'x, y, z'
loop_
 _atom_site_type_symbol
 _atom_site_label
 _atom_site_symmetry_multiplicity
 _atom_site_fract_x
 _atom_site_fract_y
 _atom_site_fract_z
 _atom_site_occupancy
  Li  Li0  1  0.26347483  0.13089577  0.45784669  1
  Li  Li1  1  0.26347877  0.13269528  0.95786530  1
  Li  Li2  1  0.20209790  0.40284551  0.62438533  1
  Li  Li3  1  0.20062798  0.79782502  0.62450903  1
  Li  Li4  1  0.53603712  0.46637285  0.79141226  1
  Li  Li5  1  0.86919928  0.13256257  0.45795300  1
  Li  Li6  1  0.20065965  0.40286895  0.12443886  1
  Li  Li7  1  0.20217286  0.79936905  0.12450957  1
  Li  Li8  1  0.86730540  0.73652017  0.45785953  1
  Li  Li9  1  0.86743669  0.13080065  0.95795266  1
  Li  Li10  1  0.59715410  0.79790224  0.12439127  1
  Li  Li11  1  0.59712800  0.79933767  0.62444428  1
  Li  Li12  1  0.53366205  0.06968257  0.79131573  1
  Li  Li13  1  0.53362711  0.46396453  0.29141260  1
  Li  Li14  1  0.86910333  0.73652414  0.95783926  1
  Li  Li15  1  0.53598598  0.06967281  0.29135722  1
  Li  Li16  1  -0.06967210  0.46401365  0.79136226  1
  Li  Li17  1  -0.06968130  0.46633953  0.29132327  1
  Br  Br18  1  0.75920082  0.88022590  0.38168606  1
  Br  Br19  1  0.75923566  0.87891278  0.88170145  1
  Br  Br20  1  0.45315281  0.90749377  0.54867751  1
  Br  Br21  1  0.45431233  0.54683808  0.54871353  1
  Br  Br22  1  0.78633102  0.21204870  0.71527870  1
  Br  Br23  1  0.11967047  0.87892968  0.38174245  1
  Br  Br24  1  0.45438340  0.90747693  0.04859672  1
  Br  Br25  1  0.45316418  0.54569083  0.04871375  1
  Br  Br26  1  0.12108845  0.24076230  0.38169850  1
  Br  Br27  1  0.12107241  0.88033252  0.88173977  1
  Br  Br28  1  0.09250567  0.54684870  0.04868025  1
  Br  Br29  1  0.09252394  0.54561879  0.54860040  1
  Br  Br30  1  0.78792851  0.57423313  0.71522744  1
  Br  Br31  1  0.78794930  0.21366779  0.21527771  1
  Br  Br32  1  0.11977458  0.24079642  0.88168306  1
  Br  Br33  1  0.78637947  0.57423817  0.21517914  1
  Br  Br34  1  0.42576256  0.21362114  0.71518499  1
  Br  Br35  1  0.42576678  0.21207141  0.21523378  1
