# generated using pymatgen
data_LiBr
_symmetry_space_group_name_H-M   'P 1'
_cell_length_a   10.68837424
_cell_length_b   6.42327772
_cell_length_c   6.30906430
_cell_angle_alpha   89.99976217
_cell_angle_beta   89.98489023
_cell_angle_gamma   90.00040174
_symmetry_Int_Tables_number   1
_chemical_formula_structural   LiBr
_chemical_formula_sum   'Li8 Br8'
_cell_volume   433.14498438
_cell_formula_units_Z   8
loop_
 _symmetry_equiv_pos_site_id
 _symmetry_equiv_pos_as_xyz
  1  'x, y, z'
loop_
 _atom_site_type_symbol
 _atom_site_label
 _atom_site_symmetry_multiplicity
 _atom_site_fract_x
 _atom_site_fract_y
 _atom_site_fract_z
 _atom_site_occupancy
  Li  Li0  1  0.75030383  0.48921962  0.86475082  1
  Li  Li1  1  0.25031086  0.51077737  0.36475028  1
  Li  Li2  1  0.74968537  0.98925690  0.86475085  1
  Li  Li3  1  0.24968426  0.51073900  0.86475304  1
  Li  Li4  1  0.25030798  0.01077691  0.86475001  1
  Li  Li5  1  0.74968915  0.48926231  0.36475085  1
  Li  Li6  1  0.24969335  0.01074175  0.36475323  1
  Li  Li7  1  0.75031647  0.98922917  0.36475073  1
  Br  Br8  1  0.86177668  0.23956839  0.61472471  1
  Br  Br9  1  0.36177590  0.76043019  0.11471720  1
  Br  Br10  1  0.63822757  0.73957021  0.61465038  1
  Br  Br11  1  0.13822675  0.76043425  0.61465302  1
  Br  Br12  1  0.36177620  0.26043239  0.61472252  1
  Br  Br13  1  0.63822507  0.23956523  0.11465978  1
  Br  Br14  1  0.13822651  0.26043255  0.11465874  1
  Br  Br15  1  0.86177404  0.73956376  0.11471552  1
