# generated using pymatgen
data_LiBr
_symmetry_space_group_name_H-M   'P 1'
_cell_length_a   3.90035187
_cell_length_b   3.90011104
_cell_length_c   9.49280258
_cell_angle_alpha   89.99266128
_cell_angle_beta   90.00241096
_cell_angle_gamma   120.00454129
_symmetry_Int_Tables_number   1
_chemical_formula_structural   LiBr
_chemical_formula_sum   'Li3 Br3'
_cell_volume   125.05065220
_cell_formula_units_Z   3
loop_
 _symmetry_equiv_pos_site_id
 _symmetry_equiv_pos_as_xyz
  1  'x, y, z'
loop_
 _atom_site_type_symbol
 _atom_site_label
 _atom_site_symmetry_multiplicity
 _atom_site_fract_x
 _atom_site_fract_y
 _atom_site_fract_z
 _atom_site_occupancy
  Li  Li0  1  0.66454576  0.66678147  0.49514169  1
  Li  Li1  1  0.33322638  -0.00225371  0.16181677  1
  Li  Li2  1  0.00222035  0.33545007  0.82846444  1
  Br  Br3  1  0.66889353  0.66905597  -0.00471088  1
  Br  Br4  1  0.33095033  -0.00014347  0.66195928  1
  Br  Br5  1  0.00016366  0.33110967  0.32862250  1
