# generated using pymatgen
data_LiBr
_symmetry_space_group_name_H-M   'P 1'
_cell_length_a   6.61249498
_cell_length_b   6.61258846
_cell_length_c   3.95308756
_cell_angle_alpha   90.00337971
_cell_angle_beta   89.99972790
_cell_angle_gamma   120.00296070
_symmetry_Int_Tables_number   1
_chemical_formula_structural   LiBr
_chemical_formula_sum   'Li3 Br3'
_cell_volume   149.68936894
_cell_formula_units_Z   3
loop_
 _symmetry_equiv_pos_site_id
 _symmetry_equiv_pos_as_xyz
  1  'x, y, z'
loop_
 _atom_site_type_symbol
 _atom_site_label
 _atom_site_symmetry_multiplicity
 _atom_site_fract_x
 _atom_site_fract_y
 _atom_site_fract_z
 _atom_site_occupancy
  Li  Li0  1  0.05768031  0.33345905  0.16763685  1
  Li  Li1  1  0.66657570  0.72426094  0.50116206  1
  Li  Li2  1  0.27577884  -0.05768360  0.83447725  1
  Br  Br3  1  0.30853489  0.33310836  0.66715601  1
  Br  Br4  1  0.66685265  -0.02464269  0.00059587  1
  Br  Br5  1  0.02457760  0.69149794  0.33395370  1
