# generated using pymatgen
data_LiBr
_symmetry_space_group_name_H-M   'P 1'
_cell_length_a   4.38345369
_cell_length_b   4.38281374
_cell_length_c   8.71274021
_cell_angle_alpha   90.02388997
_cell_angle_beta   89.98951845
_cell_angle_gamma   120.01966880
_symmetry_Int_Tables_number   1
_chemical_formula_structural   LiBr
_chemical_formula_sum   'Li3 Br3'
_cell_volume   144.93346844
_cell_formula_units_Z   3
loop_
 _symmetry_equiv_pos_site_id
 _symmetry_equiv_pos_as_xyz
  1  'x, y, z'
loop_
 _atom_site_type_symbol
 _atom_site_label
 _atom_site_symmetry_multiplicity
 _atom_site_fract_x
 _atom_site_fract_y
 _atom_site_fract_z
 _atom_site_occupancy
  Li  Li0  1  0.66644728  0.66626155  0.36207221  1
  Li  Li1  1  0.33346257  -0.00005028  0.69743648  1
  Li  Li2  1  0.00003627  0.33354156  0.02992384  1
  Br  Br3  1  0.33321806  0.00028236  -0.01600064  1
  Br  Br4  1  -0.00008289  0.33307954  0.31685156  1
  Br  Br5  1  0.66691871  0.66688527  0.64991178  1
