# generated using pymatgen
data_LiBr
_symmetry_space_group_name_H-M   'P 1'
_cell_length_a   3.90384795
_cell_length_b   3.90385065
_cell_length_c   10.96604783
_cell_angle_alpha   90.00000044
_cell_angle_beta   89.99999926
_cell_angle_gamma   90.00015887
_symmetry_Int_Tables_number   1
_chemical_formula_structural   LiBr
_chemical_formula_sum   'Li4 Br4'
_cell_volume   167.12300080
_cell_formula_units_Z   4
loop_
 _symmetry_equiv_pos_site_id
 _symmetry_equiv_pos_as_xyz
  1  'x, y, z'
loop_
 _atom_site_type_symbol
 _atom_site_label
 _atom_site_symmetry_multiplicity
 _atom_site_fract_x
 _atom_site_fract_y
 _atom_site_fract_z
 _atom_site_occupancy
  Li  Li0  1  0.00019494  0.50203820  0.15256799  1
  Li  Li1  1  0.50203846  -0.00018840  0.40256816  1
  Li  Li2  1  -0.00019785  0.49796489  0.65256835  1
  Li  Li3  1  0.49796159  0.00018740  0.90256815  1
  Br  Br4  1  -0.00071905  0.50098962  0.90179562  1
  Br  Br5  1  0.50099809  0.00071893  0.15179558  1
  Br  Br6  1  0.00072090  0.49900896  0.40179573  1
  Br  Br7  1  0.49900292  -0.00071960  0.65179534  1
