# generated using pymatgen
data_LiBr
_symmetry_space_group_name_H-M   'P 1'
_cell_length_a   11.42516447
_cell_length_b   11.42517696
_cell_length_c   7.32948278
_cell_angle_alpha   90.00477045
_cell_angle_beta   89.99518375
_cell_angle_gamma   120.00205483
_symmetry_Int_Tables_number   1
_chemical_formula_structural   LiBr
_chemical_formula_sum   'Li18 Br18'
_cell_volume   828.55312944
_cell_formula_units_Z   18
loop_
 _symmetry_equiv_pos_site_id
 _symmetry_equiv_pos_as_xyz
  1  'x, y, z'
loop_
 _atom_site_type_symbol
 _atom_site_label
 _atom_site_symmetry_multiplicity
 _atom_site_fract_x
 _atom_site_fract_y
 _atom_site_fract_z
 _atom_site_occupancy
  Li  Li0  1  0.23008003  0.46670833  0.86703650  1
  Li  Li1  1  0.23007904  0.76336800  0.36703693  1
  Li  Li2  1  0.86661970  0.43661866  0.03370202  1
  Li  Li3  1  0.57000535  0.13338330  0.03370887  1
  Li  Li4  1  0.19992390  0.09667177  0.20031525  1
  Li  Li5  1  0.53329142  0.76336895  0.86704491  1
  Li  Li6  1  0.57000294  0.43662102  0.53370702  1
  Li  Li7  1  0.86661822  0.42999663  0.53370966  1
  Li  Li8  1  0.23663238  0.76992126  0.86703718  1
  Li  Li9  1  0.23663023  0.46670861  0.36704436  1
  Li  Li10  1  0.56338014  0.13338117  0.53370173  1
  Li  Li11  1  0.56337948  0.42999698  0.03370669  1
  Li  Li12  1  0.90333300  0.10325172  0.20031409  1
  Li  Li13  1  0.90332913  0.80007561  0.70031498  1
  Li  Li14  1  0.53329190  0.76992135  0.36703708  1
  Li  Li15  1  0.19992148  0.10325033  0.70030633  1
  Li  Li16  1  0.89675002  0.80007778  0.20030505  1
  Li  Li17  1  0.89674760  0.09666631  0.70031410  1
  Br  Br18  1  0.45162094  0.23156995  0.77121691  1
  Br  Br19  1  0.45162219  0.22005103  0.27121687  1
  Br  Br20  1  0.10179042  0.21504372  0.93787172  1
  Br  Br21  1  0.11324980  0.89821002  0.93789726  1
  Br  Br22  1  0.43511390  0.55341267  0.10461220  1
  Br  Br23  1  0.76842717  0.22005394  0.77124102  1
  Br  Br24  1  0.11325527  0.21504493  0.43787239  1
  Br  Br25  1  0.10178996  0.88674966  0.43789737  1
  Br  Br26  1  0.77994843  0.54837724  0.77121805  1
  Br  Br27  1  0.77994613  0.23157199  0.27124143  1
  Br  Br28  1  0.78495573  0.89820912  0.43787042  1
  Br  Br29  1  0.78495515  0.88674463  0.93787046  1
  Br  Br30  1  0.44659069  0.88170642  0.10458690  1
  Br  Br31  1  0.44658792  0.56488675  0.60461255  1
  Br  Br32  1  0.76842985  0.54837862  0.27121748  1
  Br  Br33  1  0.43511591  0.88170832  0.60458683  1
  Br  Br34  1  0.11829175  0.56488407  0.10458664  1
  Br  Br35  1  0.11829279  0.55340918  0.60458752  1
