# generated using pymatgen
data_LiI
_symmetry_space_group_name_H-M   'P 1'
_cell_length_a   8.56683626
_cell_length_b   8.56701449
_cell_length_c   11.79083410
_cell_angle_alpha   89.99998638
_cell_angle_beta   89.99999663
_cell_angle_gamma   90.00004236
_symmetry_Int_Tables_number   1
_chemical_formula_structural   LiI
_chemical_formula_sum   'Li16 I16'
_cell_volume   865.35537648
_cell_formula_units_Z   16
loop_
 _symmetry_equiv_pos_site_id
 _symmetry_equiv_pos_as_xyz
  1  'x, y, z'
loop_
 _atom_site_type_symbol
 _atom_site_label
 _atom_site_symmetry_multiplicity
 _atom_site_fract_x
 _atom_site_fract_y
 _atom_site_fract_z
 _atom_site_occupancy
  Li  Li0  1  0.49984840  0.25095000  0.87532543  1
  Li  Li1  1  0.25095749  0.50015906  0.12467340  1
  Li  Li2  1  0.49984133  0.74905175  0.37532536  1
  Li  Li3  1  0.75095168  0.00015626  0.62467447  1
  Li  Li4  1  -0.00015802  0.24905078  0.87532476  1
  Li  Li5  1  0.24905134  -0.00015582  0.62467647  1
  Li  Li6  1  -0.00015158  0.75095010  0.37532480  1
  Li  Li7  1  0.00014853  0.24905079  0.37532446  1
  Li  Li8  1  0.24905097  0.00014977  0.12467667  1
  Li  Li9  1  0.00015589  0.75094923  0.87532516  1
  Li  Li10  1  0.75095414  -0.00015043  0.12467437  1
  Li  Li11  1  0.50015029  0.74904952  0.87532461  1
  Li  Li12  1  0.74905297  0.49984218  0.12467621  1
  Li  Li13  1  0.74905151  0.50015113  0.62467513  1
  Li  Li14  1  0.50015568  0.25094929  0.37532477  1
  Li  Li15  1  0.25095576  0.49984823  0.62467362  1
  I  I16  1  0.50037478  0.24976933  0.12494996  1
  I  I17  1  0.24976841  0.49962359  0.87504876  1
  I  I18  1  0.50037625  0.75022996  0.62494982  1
  I  I19  1  0.74976832  -0.00037673  0.37505022  1
  I  I20  1  0.00037621  0.25023021  0.12495060  1
  I  I21  1  0.25022896  0.00037656  0.37505097  1
  I  I22  1  0.00037463  0.74976894  0.62494875  1
  I  I23  1  -0.00037640  0.25023075  0.62494850  1
  I  I24  1  0.25022977  -0.00037520  0.87505068  1
  I  I25  1  -0.00037789  0.74976928  0.12495046  1
  I  I26  1  0.74976776  0.00037541  0.87505042  1
  I  I27  1  0.49962454  0.75023097  0.12494978  1
  I  I28  1  0.75022906  0.50037624  0.87504945  1
  I  I29  1  0.75022955  0.49962438  0.37505130  1
  I  I30  1  0.49962224  0.24976940  0.62494980  1
  I  I31  1  0.24976742  0.50037509  0.37505084  1
