# generated using pymatgen
data_KI
_symmetry_space_group_name_H-M   'P 1'
_cell_length_a   8.88811001
_cell_length_b   8.81093870
_cell_length_c   8.98251932
_cell_angle_alpha   90.00188856
_cell_angle_beta   90.00134085
_cell_angle_gamma   90.00051717
_symmetry_Int_Tables_number   1
_chemical_formula_structural   KI
_chemical_formula_sum   'K8 I8'
_cell_volume   703.44437371
_cell_formula_units_Z   8
loop_
 _symmetry_equiv_pos_site_id
 _symmetry_equiv_pos_as_xyz
  1  'x, y, z'
loop_
 _atom_site_type_symbol
 _atom_site_label
 _atom_site_symmetry_multiplicity
 _atom_site_fract_x
 _atom_site_fract_y
 _atom_site_fract_z
 _atom_site_occupancy
  K  K0  1  0.75071532  0.51796628  0.29914616  1
  K  K1  1  0.75071590  -0.01797611  0.79915845  1
  K  K2  1  0.25071783  0.48203384  0.20085410  1
  K  K3  1  0.74928322  -0.01797626  0.29915853  1
  K  K4  1  0.24928313  0.01797644  0.20084115  1
  K  K5  1  0.74928320  0.51796634  0.79914618  1
  K  K6  1  0.25071848  0.01797627  0.70084119  1
  K  K7  1  0.24928297  0.48203354  0.70085393  1
  I  I8  1  -0.01021125  0.74986698  0.05495780  1
  I  I9  1  -0.01021050  0.75013039  0.55495752  1
  I  I10  1  0.48979264  0.25012970  0.44504684  1
  I  I11  1  0.51020641  0.75012999  0.05495288  1
  I  I12  1  0.01021061  0.24987304  0.44504271  1
  I  I13  1  0.51020721  0.74986647  0.55495326  1
  I  I14  1  0.48979349  0.24987285  0.94504705  1
  I  I15  1  0.01021134  0.25013026  0.94504224  1
