# generated using pymatgen
data_LiBr
_symmetry_space_group_name_H-M   'P 1'
_cell_length_a   15.99040232
_cell_length_b   15.99044491
_cell_length_c   15.99035970
_cell_angle_alpha   90.00010152
_cell_angle_beta   89.99974819
_cell_angle_gamma   89.99991933
_symmetry_Int_Tables_number   1
_chemical_formula_structural   LiBr
_chemical_formula_sum   'Li48 Br48'
_cell_volume   4088.63339311
_cell_formula_units_Z   48
loop_
 _symmetry_equiv_pos_site_id
 _symmetry_equiv_pos_as_xyz
  1  'x, y, z'
loop_
 _atom_site_type_symbol
 _atom_site_label
 _atom_site_symmetry_multiplicity
 _atom_site_fract_x
 _atom_site_fract_y
 _atom_site_fract_z
 _atom_site_occupancy
  Li  Li0  1  0.44095288  0.40948196  0.60659479  1
  Li  Li1  1  0.65948071  0.69095210  0.85659526  1
  Li  Li2  1  -0.05904707  0.09051778  0.39340564  1
  Li  Li3  1  0.34052062  0.80904827  0.85659455  1
  Li  Li4  1  0.05904681  0.40948323  0.39340491  1
  Li  Li5  1  0.64340489  0.65948374  0.30904902  1
  Li  Li6  1  0.64340576  0.34051686  0.19095164  1
  Li  Li7  1  0.84051706  0.69095325  0.14340419  1
  Li  Li8  1  -0.05904669  0.90948095  0.10659564  1
  Li  Li9  1  0.15948118  0.19095359  0.35659579  1
  Li  Li10  1  0.60659495  0.55904806  0.09051966  1
  Li  Li11  1  0.80904944  0.85659489  0.34052074  1
  Li  Li12  1  0.39340531  -0.05904849  0.09052103  1
  Li  Li13  1  0.19095107  0.35659509  0.15948037  1
  Li  Li14  1  0.80904909  0.14340358  0.15948262  1
  Li  Li15  1  0.10659697  -0.05904773  0.90948142  1
  Li  Li16  1  0.19095118  0.64340463  0.34051762  1
  Li  Li17  1  0.69095109  0.14340370  0.84051739  1
  Li  Li18  1  0.39340444  0.05904940  0.40948045  1
  Li  Li19  1  0.65948129  0.30904728  0.64340473  1
  Li  Li20  1  0.40948171  0.60659438  0.44095131  1
  Li  Li21  1  0.59051822  0.10659431  0.05904830  1
  Li  Li22  1  0.35659488  0.15948395  0.19095158  1
  Li  Li23  1  0.90948363  0.89340543  0.55904937  1
  Li  Li24  1  0.85659430  0.34051562  0.80904775  1
  Li  Li25  1  0.59051580  0.89340533  0.44095148  1
  Li  Li26  1  0.89340443  0.55904873  0.90947960  1
  Li  Li27  1  0.15948277  0.80904641  0.14340407  1
  Li  Li28  1  0.05904562  0.59051793  0.10659445  1
  Li  Li29  1  0.44095202  0.59051756  0.89340567  1
  Li  Li30  1  0.84051945  0.30904758  0.35659442  1
  Li  Li31  1  0.55904777  0.90948116  0.89340511  1
  Li  Li32  1  0.14340506  0.15948350  0.80904819  1
  Li  Li33  1  0.14340642  0.84051846  0.69095266  1
  Li  Li34  1  0.09051895  0.60659470  0.55904895  1
  Li  Li35  1  0.85659554  0.65948400  0.69095148  1
  Li  Li36  1  0.55904646  0.09051871  0.60659458  1
  Li  Li37  1  0.34051856  0.19095302  0.64340480  1
  Li  Li38  1  0.40948326  0.39340482  0.05904789  1
  Li  Li39  1  0.35659381  0.84051732  0.30904850  1
  Li  Li40  1  0.09051472  0.39340472  -0.05904806  1
  Li  Li41  1  0.90948168  0.10659320  -0.05904814  1
  Li  Li42  1  0.30904914  0.64340450  0.65948232  1
  Li  Li43  1  0.89340468  0.44095135  0.59052021  1
  Li  Li44  1  0.69095028  0.85659468  0.65947920  1
  Li  Li45  1  0.10659576  0.05904903  0.59051890  1
  Li  Li46  1  0.30904745  0.35659610  0.84051846  1
  Li  Li47  1  0.60659639  0.44095153  0.40948066  1
  Br  Br48  1  0.68251807  0.21564123  0.11375151  1
  Br  Br49  1  0.46564104  0.93251723  0.36375043  1
  Br  Br50  1  0.18251649  0.28435830  0.88624938  1
  Br  Br51  1  0.53435802  0.56748240  0.36375101  1
  Br  Br52  1  0.81748252  0.21564038  0.88624813  1
  Br  Br53  1  0.13624709  0.46564312  0.06748214  1
  Br  Br54  1  0.13624989  0.53435631  0.43251739  1
  Br  Br55  1  0.03435864  0.93251778  0.63624972  1
  Br  Br56  1  0.18251810  0.71564247  0.61375219  1
  Br  Br57  1  -0.03435874  0.43251658  0.86374905  1
  Br  Br58  1  0.11375014  0.31748337  0.28435653  1
  Br  Br59  1  0.56748295  0.36374926  0.53435516  1
  Br  Br60  1  0.88625149  0.18251695  0.28435650  1
  Br  Br61  1  0.43251826  0.86374915  -0.03435435  1
  Br  Br62  1  0.56748194  0.63624927  -0.03435525  1
  Br  Br63  1  0.61374889  0.18251766  0.71564346  1
  Br  Br64  1  0.43251780  0.13625181  0.53435474  1
  Br  Br65  1  0.93251650  0.63625053  0.03435482  1
  Br  Br66  1  0.88625016  0.81748195  0.21564437  1
  Br  Br67  1  0.46564313  0.06748281  0.13625070  1
  Br  Br68  1  0.21564427  0.11375116  0.68251777  1
  Br  Br69  1  0.78435568  0.61375121  0.81748107  1
  Br  Br70  1  0.86375135  -0.03435608  0.43251917  1
  Br  Br71  1  0.71564575  0.38625016  0.31748087  1
  Br  Br72  1  0.36375044  0.53435587  0.56748201  1
  Br  Br73  1  0.78435495  0.38624924  0.68251873  1
  Br  Br74  1  0.38624996  0.31748313  0.71564353  1
  Br  Br75  1  -0.03435699  0.56748240  0.63624988  1
  Br  Br76  1  0.81748273  0.78435770  0.61374914  1
  Br  Br77  1  0.68251723  0.78435788  0.38625064  1
  Br  Br78  1  0.03435824  0.06748278  0.86375131  1
  Br  Br79  1  0.31748234  0.71564178  0.38624844  1
  Br  Br80  1  0.63624777  -0.03435607  0.56748177  1
  Br  Br81  1  0.63624964  0.03435536  0.93251726  1
  Br  Br82  1  0.28435585  0.11375193  0.31748198  1
  Br  Br83  1  0.36374976  0.46564397  0.93251856  1
  Br  Br84  1  0.31748247  0.28435730  0.11374880  1
  Br  Br85  1  0.53435773  0.43251652  0.13624962  1
  Br  Br86  1  0.21564715  0.88625191  0.81748138  1
  Br  Br87  1  0.86375024  0.03435449  0.06748255  1
  Br  Br88  1  0.28435454  0.88625091  0.18251941  1
  Br  Br89  1  0.71564330  0.61375134  0.18251802  1
  Br  Br90  1  0.06748176  0.13625151  0.46564519  1
  Br  Br91  1  0.38625172  0.68251723  0.78435646  1
  Br  Br92  1  0.93251713  0.36375005  0.46564432  1
  Br  Br93  1  0.61374978  0.81748202  0.78435542  1
  Br  Br94  1  0.06748317  0.86374887  0.03435537  1
  Br  Br95  1  0.11374993  0.68251674  0.21564251  1
