# generated using pymatgen
data_LiI
_symmetry_space_group_name_H-M   'P 1'
_cell_length_a   7.45311195
_cell_length_b   7.44787357
_cell_length_c   13.50142381
_cell_angle_alpha   90.00028130
_cell_angle_beta   90.00014203
_cell_angle_gamma   120.04825775
_symmetry_Int_Tables_number   1
_chemical_formula_structural   LiI
_chemical_formula_sum   'Li6 I6'
_cell_volume   648.73712077
_cell_formula_units_Z   6
loop_
 _symmetry_equiv_pos_site_id
 _symmetry_equiv_pos_as_xyz
  1  'x, y, z'
loop_
 _atom_site_type_symbol
 _atom_site_label
 _atom_site_symmetry_multiplicity
 _atom_site_fract_x
 _atom_site_fract_y
 _atom_site_fract_z
 _atom_site_occupancy
  Li  Li0  1  0.59558879  0.18606422  0.84986643  1
  Li  Li1  1  0.40995031  0.59566278  0.01693065  1
  Li  Li2  1  0.59005081  0.40434060  0.51692928  1
  Li  Li3  1  0.18636702  0.59161506  0.68325498  1
  Li  Li4  1  0.81363008  0.40838098  0.18325463  1
  Li  Li5  1  0.40441005  0.81393596  0.34986736  1
  I  I6  1  0.77328321  0.38980476  0.68358080  1
  I  I7  1  0.38656208  0.77261836  0.84986964  1
  I  I8  1  0.61344437  0.22738182  0.34987028  1
  I  I9  1  0.38827628  0.61562780  0.51671715  1
  I  I10  1  0.61172274  0.38437330  0.01671696  1
  I  I11  1  0.22671428  0.61019437  0.18358146  1
