# generated using pymatgen
data_KI
_symmetry_space_group_name_H-M   'P 1'
_cell_length_a   8.54183656
_cell_length_b   8.87965693
_cell_length_c   4.93299542
_cell_angle_alpha   90.00000239
_cell_angle_beta   89.99997138
_cell_angle_gamma   90.00000123
_symmetry_Int_Tables_number   1
_chemical_formula_structural   KI
_chemical_formula_sum   'K4 I4'
_cell_volume   374.16068914
_cell_formula_units_Z   4
loop_
 _symmetry_equiv_pos_site_id
 _symmetry_equiv_pos_as_xyz
  1  'x, y, z'
loop_
 _atom_site_type_symbol
 _atom_site_label
 _atom_site_symmetry_multiplicity
 _atom_site_fract_x
 _atom_site_fract_y
 _atom_site_fract_z
 _atom_site_occupancy
  K  K0  1  0.33367883  0.24958204  0.24870551  1
  K  K1  1  0.66632115  0.74958203  0.25129449  1
  K  K2  1  0.16632122  0.75041802  0.74870495  1
  K  K3  1  0.83367877  0.25041803  0.75129505  1
  I  I4  1  0.50001314  -0.00118436  0.74930866  1
  I  I5  1  0.49998689  0.49881565  0.75069144  1
  I  I6  1  -0.00001315  0.00118430  0.24930834  1
  I  I7  1  0.00001316  0.50118429  0.25069156  1
