# generated using pymatgen
data_LiBr
_symmetry_space_group_name_H-M   'P 1'
_cell_length_a   7.82306182
_cell_length_b   3.92038566
_cell_length_c   5.40846830
_cell_angle_alpha   89.99999339
_cell_angle_beta   89.99998412
_cell_angle_gamma   89.99980712
_symmetry_Int_Tables_number   1
_chemical_formula_structural   LiBr
_chemical_formula_sum   'Li4 Br4'
_cell_volume   165.87458242
_cell_formula_units_Z   4
loop_
 _symmetry_equiv_pos_site_id
 _symmetry_equiv_pos_as_xyz
  1  'x, y, z'
loop_
 _atom_site_type_symbol
 _atom_site_label
 _atom_site_symmetry_multiplicity
 _atom_site_fract_x
 _atom_site_fract_y
 _atom_site_fract_z
 _atom_site_occupancy
  Li  Li0  1  0.87714268  0.25016500  0.68494421  1
  Li  Li1  1  0.37714001  0.24984357  0.68494531  1
  Li  Li2  1  0.12285851  0.74983561  0.18494556  1
  Li  Li3  1  0.62285955  0.75015686  0.18494595  1
  Br  Br4  1  0.62574013  0.74993364  0.68543575  1
  Br  Br5  1  0.12574026  0.75006818  0.68543722  1
  Br  Br6  1  0.37425924  0.25006572  0.18543575  1
  Br  Br7  1  0.87425963  0.24993143  0.18543708  1
