# generated using pymatgen
data_KI
_symmetry_space_group_name_H-M   'P 1'
_cell_length_a   8.84924282
_cell_length_b   4.40815161
_cell_length_c   8.73916186
_cell_angle_alpha   90.00344666
_cell_angle_beta   89.99988551
_cell_angle_gamma   90.00006707
_symmetry_Int_Tables_number   1
_chemical_formula_structural   KI
_chemical_formula_sum   'K4 I4'
_cell_volume   340.90425152
_cell_formula_units_Z   4
loop_
 _symmetry_equiv_pos_site_id
 _symmetry_equiv_pos_as_xyz
  1  'x, y, z'
loop_
 _atom_site_type_symbol
 _atom_site_label
 _atom_site_symmetry_multiplicity
 _atom_site_fract_x
 _atom_site_fract_y
 _atom_site_fract_z
 _atom_site_occupancy
  K  K0  1  0.96502808  0.50047613  0.91326459  1
  K  K1  1  0.46503158  0.49951030  0.91326170  1
  K  K2  1  0.03496672  0.49950898  0.41326412  1
  K  K3  1  0.53497021  0.50047721  0.41326700  1
  I  I4  1  0.78988271  0.00384824  0.19133772  1
  I  I5  1  0.28987862  0.99616510  0.19133729  1
  I  I6  1  0.21012307  0.99616668  0.69133577  1
  I  I7  1  0.71011901  0.00384735  0.69133626  1
