# generated using pymatgen
data_NaI
_symmetry_space_group_name_H-M   'P 1'
_cell_length_a   8.51829723
_cell_length_b   8.50180505
_cell_length_c   12.09621331
_cell_angle_alpha   90.00096604
_cell_angle_beta   89.99920843
_cell_angle_gamma   120.43466836
_symmetry_Int_Tables_number   1
_chemical_formula_structural   NaI
_chemical_formula_sum   'Na6 I6'
_cell_volume   755.30972328
_cell_formula_units_Z   6
loop_
 _symmetry_equiv_pos_site_id
 _symmetry_equiv_pos_as_xyz
  1  'x, y, z'
loop_
 _atom_site_type_symbol
 _atom_site_label
 _atom_site_symmetry_multiplicity
 _atom_site_fract_x
 _atom_site_fract_y
 _atom_site_fract_z
 _atom_site_occupancy
  Na  Na0  1  0.01943081  0.20623213  0.41527046  1
  Na  Na1  1  0.81182139  0.01565181  0.08181191  1
  Na  Na2  1  0.18817689  0.98435070  0.08181477  1
  Na  Na3  1  0.20601149  0.18805035  0.74871571  1
  Na  Na4  1  0.79398258  0.81194317  0.74871505  1
  Na  Na5  1  0.98057092  0.79377313  0.41526894  1
  I  I6  1  0.82087256  0.69491900  0.98033270  1
  I  I7  1  0.12343369  0.82078973  0.64715137  1
  I  I8  1  0.87656013  0.17920262  0.64715519  1
  I  I9  1  0.69584283  0.87481503  0.31400860  1
  I  I10  1  0.30416455  0.12518939  0.31401105  1
  I  I11  1  0.17913215  0.30508294  0.98033742  1
