# generated using pymatgen
data_NaI
_symmetry_space_group_name_H-M   'P 1'
_cell_length_a   4.63833574
_cell_length_b   4.64770697
_cell_length_c   12.71712540
_cell_angle_alpha   90.00103014
_cell_angle_beta   90.00176452
_cell_angle_gamma   89.96311703
_symmetry_Int_Tables_number   1
_chemical_formula_structural   NaI
_chemical_formula_sum   'Na4 I4'
_cell_volume   274.15096777
_cell_formula_units_Z   4
loop_
 _symmetry_equiv_pos_site_id
 _symmetry_equiv_pos_as_xyz
  1  'x, y, z'
loop_
 _atom_site_type_symbol
 _atom_site_label
 _atom_site_symmetry_multiplicity
 _atom_site_fract_x
 _atom_site_fract_y
 _atom_site_fract_z
 _atom_site_occupancy
  Na  Na0  1  0.99380626  0.50513929  0.88663247  1
  Na  Na1  1  0.50665083  0.00695322  0.63715274  1
  Na  Na2  1  0.00619398  0.49486000  0.38663227  1
  Na  Na3  1  0.49334903  0.99304731  0.13715272  1
  I  I4  1  0.50483753  -0.00406791  0.38713530  1
  I  I5  1  -0.00502459  0.49453043  0.13675066  1
  I  I6  1  0.49516211  0.00406785  0.88713501  1
  I  I7  1  0.00502486  0.50546982  0.63675115  1
