# generated using pymatgen
data_LiBr
_symmetry_space_group_name_H-M   'P 1'
_cell_length_a   7.46792661
_cell_length_b   7.46830364
_cell_length_c   3.99034017
_cell_angle_alpha   89.99993109
_cell_angle_beta   89.99995553
_cell_angle_gamma   90.01370562
_symmetry_Int_Tables_number   1
_chemical_formula_structural   LiBr
_chemical_formula_sum   'Li4 Br4'
_cell_volume   222.55221252
_cell_formula_units_Z   4
loop_
 _symmetry_equiv_pos_site_id
 _symmetry_equiv_pos_as_xyz
  1  'x, y, z'
loop_
 _atom_site_type_symbol
 _atom_site_label
 _atom_site_symmetry_multiplicity
 _atom_site_fract_x
 _atom_site_fract_y
 _atom_site_fract_z
 _atom_site_occupancy
  Li  Li0  1  0.42080891  0.83774571  0.21668785  1
  Li  Li1  1  0.83786391  0.57929415  0.96631849  1
  Li  Li2  1  0.57919120  0.16225445  0.71668677  1
  Li  Li3  1  0.16213597  0.42070580  0.46632151  1
  Br  Br4  1  0.17416057  0.63906333  -0.02565069  1
  Br  Br5  1  0.63928137  0.82609272  0.72472270  1
  Br  Br6  1  0.82583954  0.36093659  0.47434904  1
  Br  Br7  1  0.36071854  0.17390724  0.22472438  1
