# generated using pymatgen
data_LiI
_symmetry_space_group_name_H-M   'P 1'
_cell_length_a   12.38129413
_cell_length_b   12.38129589
_cell_length_c   7.95406929
_cell_angle_alpha   90.00009216
_cell_angle_beta   89.99994797
_cell_angle_gamma   89.99996474
_symmetry_Int_Tables_number   1
_chemical_formula_structural   LiI
_chemical_formula_sum   'Li16 I16'
_cell_volume   1219.33071300
_cell_formula_units_Z   16
loop_
 _symmetry_equiv_pos_site_id
 _symmetry_equiv_pos_as_xyz
  1  'x, y, z'
loop_
 _atom_site_type_symbol
 _atom_site_label
 _atom_site_symmetry_multiplicity
 _atom_site_fract_x
 _atom_site_fract_y
 _atom_site_fract_z
 _atom_site_occupancy
  Li  Li0  1  0.24243870  0.38746783  0.58917503  1
  Li  Li1  1  0.11253232  0.74244039  0.58917170  1
  Li  Li2  1  0.25755849  0.88746862  0.91083197  1
  Li  Li3  1  0.38746632  0.75756126  0.41082432  1
  Li  Li4  1  0.24244139  0.61253271  0.08917473  1
  Li  Li5  1  0.61253209  0.24243928  0.41082149  1
  Li  Li6  1  0.25756023  0.11253220  0.41082607  1
  Li  Li7  1  0.74243991  0.88746628  0.41082237  1
  Li  Li8  1  0.88746820  0.74243883  0.08917619  1
  Li  Li9  1  0.75756129  0.38746655  0.08917653  1
  Li  Li10  1  0.11253220  0.25756053  0.08917638  1
  Li  Li11  1  0.75756127  0.61253237  0.58917946  1
  Li  Li12  1  0.88746806  0.25756012  0.58917414  1
  Li  Li13  1  0.61253324  0.75756230  0.91082301  1
  Li  Li14  1  0.74243833  0.11253199  0.91082244  1
  Li  Li15  1  0.38746701  0.24243949  0.91082370  1
  I  I16  1  0.91382149  0.74154326  0.43682180  1
  I  I17  1  0.75845616  0.41382150  0.43682063  1
  I  I18  1  0.58617832  0.24154461  0.06317826  1
  I  I19  1  0.74154372  0.08617865  0.56317689  1
  I  I20  1  0.91382107  0.25845403  0.93681991  1
  I  I21  1  0.25845424  0.91382138  0.56318163  1
  I  I22  1  0.58617863  0.75845529  0.56317812  1
  I  I23  1  0.41382082  0.24154402  0.56317974  1
  I  I24  1  0.24154403  0.41382122  0.93682080  1
  I  I25  1  0.08617942  0.74154376  0.93682059  1
  I  I26  1  0.75845530  0.58617866  0.93682260  1
  I  I27  1  0.08617857  0.25845630  0.43681911  1
  I  I28  1  0.24154501  0.58617840  0.43681950  1
  I  I29  1  0.25845600  0.08617921  0.06318091  1
  I  I30  1  0.41382249  0.75845739  0.06318148  1
  I  I31  1  0.74154570  0.91382154  0.06317852  1
