# generated using pymatgen
data_LiBr
_symmetry_space_group_name_H-M   'P 1'
_cell_length_a   12.94944566
_cell_length_b   12.94917053
_cell_length_c   13.22875933
_cell_angle_alpha   90.00085383
_cell_angle_beta   90.00084137
_cell_angle_gamma   89.99975165
_symmetry_Int_Tables_number   1
_chemical_formula_structural   LiBr
_chemical_formula_sum   'Li32 Br32'
_cell_volume   2218.25895285
_cell_formula_units_Z   32
loop_
 _symmetry_equiv_pos_site_id
 _symmetry_equiv_pos_as_xyz
  1  'x, y, z'
loop_
 _atom_site_type_symbol
 _atom_site_label
 _atom_site_symmetry_multiplicity
 _atom_site_fract_x
 _atom_site_fract_y
 _atom_site_fract_z
 _atom_site_occupancy
  Li  Li0  1  0.43105889  0.28964472  0.03235777  1
  Li  Li1  1  0.71034398  0.56894406  0.46762590  1
  Li  Li2  1  0.21034240  0.93105757  0.46762404  1
  Li  Li3  1  0.06894533  0.21033592  0.53237220  1
  Li  Li4  1  0.78965080  0.93105798  0.96762667  1
  Li  Li5  1  0.21031982  0.43105416  0.78238503  1
  Li  Li6  1  0.78965652  0.56894497  0.78237056  1
  Li  Li7  1  0.71031903  0.93105324  0.28238710  1
  Li  Li8  1  0.28966245  0.56894774  0.96762628  1
  Li  Li9  1  0.28964128  0.06894588  0.28236623  1
  Li  Li10  1  0.56894281  0.28961605  0.53234473  1
  Li  Li11  1  0.06894029  0.78964443  0.03235792  1
  Li  Li12  1  0.56894713  0.71034466  0.03237017  1
  Li  Li13  1  0.28964683  0.43105342  0.46762317  1
  Li  Li14  1  0.78969512  0.06894530  0.46760208  1
  Li  Li15  1  0.93105533  0.78967107  0.53236313  1
  Li  Li16  1  0.21033111  0.06894442  0.96762512  1
  Li  Li17  1  0.71036644  0.43105112  0.96764169  1
  Li  Li18  1  0.43105697  0.21036344  0.71764894  1
  Li  Li19  1  0.93105646  0.28964637  0.71763308  1
  Li  Li20  1  0.93105881  0.71037785  0.21764699  1
  Li  Li21  1  0.43105182  0.78967339  0.21762135  1
  Li  Li22  1  0.06894128  0.28965118  0.21763447  1
  Li  Li23  1  0.56894704  0.21033625  0.21763908  1
  Li  Li24  1  0.56894287  0.78966330  0.71763154  1
  Li  Li25  1  0.06894024  0.71034884  0.71763718  1
  Li  Li26  1  0.21034010  0.56894704  0.28237741  1
  Li  Li27  1  0.71035427  0.06894005  0.78237626  1
  Li  Li28  1  0.28966235  0.93105896  0.78237888  1
  Li  Li29  1  0.78966513  0.43105386  0.28237165  1
  Li  Li30  1  0.93106058  0.21033063  0.03237185  1
  Li  Li31  1  0.43105432  0.71035331  0.53236162  1
  Br  Br32  1  0.84970772  0.10187617  0.90469924  1
  Br  Br33  1  0.89812394  0.15029528  0.59529514  1
  Br  Br34  1  0.39810716  0.34964265  0.59524733  1
  Br  Br35  1  0.65034755  0.39809616  0.40472363  1
  Br  Br36  1  0.60189754  0.34965312  0.09527410  1
  Br  Br37  1  0.39810755  0.84967514  0.65472312  1
  Br  Br38  1  0.60189126  0.15034403  0.65475152  1
  Br  Br39  1  0.89811456  0.34967409  0.15470683  1
  Br  Br40  1  0.10188601  0.15030569  0.09529822  1
  Br  Br41  1  0.10188901  0.65034232  0.15473517  1
  Br  Br42  1  0.15029194  0.10187652  0.40469291  1
  Br  Br43  1  0.65032281  0.60187878  0.90471585  1
  Br  Br44  1  0.15032411  0.89810782  0.90470720  1
  Br  Br45  1  0.10189368  0.84966726  0.59527836  1
  Br  Br46  1  0.60189150  0.65034362  0.59527066  1
  Br  Br47  1  0.34968628  0.60187843  0.40470825  1
  Br  Br48  1  0.39812110  0.65031888  0.09528979  1
  Br  Br49  1  0.89811365  0.84967387  0.09526526  1
  Br  Br50  1  0.84969706  0.39811849  0.84529170  1
  Br  Br51  1  0.34967033  0.10189842  0.84529512  1
  Br  Br52  1  0.34969609  0.89812385  0.34529987  1
  Br  Br53  1  0.84966192  0.60189916  0.34527446  1
  Br  Br54  1  0.65028707  0.10187469  0.34533272  1
  Br  Br55  1  0.15029636  0.39812229  0.34529456  1
  Br  Br56  1  0.15029478  0.60188389  0.84531061  1
  Br  Br57  1  0.65030173  0.89812276  0.84530083  1
  Br  Br58  1  0.39810882  0.15033180  0.15472590  1
  Br  Br59  1  0.89810021  0.65034747  0.65472056  1
  Br  Br60  1  0.10187881  0.34968289  0.65471015  1
  Br  Br61  1  0.60187784  0.84970264  0.15470259  1
  Br  Br62  1  0.34968795  0.39811691  0.90469711  1
  Br  Br63  1  0.84972591  0.89812377  0.40466117  1
