# generated using pymatgen
data_NaI
_symmetry_space_group_name_H-M   'P 1'
_cell_length_a   9.31678320
_cell_length_b   6.51816229
_cell_length_c   10.80864978
_cell_angle_alpha   89.99949379
_cell_angle_beta   149.03341414
_cell_angle_gamma   90.00024216
_symmetry_Int_Tables_number   1
_chemical_formula_structural   NaI
_chemical_formula_sum   'Na4 I4'
_cell_volume   337.73816688
_cell_formula_units_Z   4
loop_
 _symmetry_equiv_pos_site_id
 _symmetry_equiv_pos_as_xyz
  1  'x, y, z'
loop_
 _atom_site_type_symbol
 _atom_site_label
 _atom_site_symmetry_multiplicity
 _atom_site_fract_x
 _atom_site_fract_y
 _atom_site_fract_z
 _atom_site_occupancy
  Na  Na0  1  0.66864057  0.74631733  0.00148510  1
  Na  Na1  1  0.33146511  0.24630683  0.49864129  1
  Na  Na2  1  0.33135960  0.25368269  -0.00148488  1
  Na  Na3  1  0.66853478  0.75369316  0.50135851  1
  I  I4  1  0.32699511  0.75267091  -0.00126151  1
  I  I5  1  0.67288791  0.25267536  0.50113819  1
  I  I6  1  0.67300467  0.24732910  0.00126138  1
  I  I7  1  0.32711225  0.74732462  0.49886191  1
