# generated using pymatgen
data_LiI
_symmetry_space_group_name_H-M   'P 1'
_cell_length_a   10.75015303
_cell_length_b   6.95084795
_cell_length_c   6.97819492
_cell_angle_alpha   89.99779718
_cell_angle_beta   90.00134260
_cell_angle_gamma   90.00398453
_symmetry_Int_Tables_number   1
_chemical_formula_structural   LiI
_chemical_formula_sum   'Li8 I8'
_cell_volume   521.42941764
_cell_formula_units_Z   8
loop_
 _symmetry_equiv_pos_site_id
 _symmetry_equiv_pos_as_xyz
  1  'x, y, z'
loop_
 _atom_site_type_symbol
 _atom_site_label
 _atom_site_symmetry_multiplicity
 _atom_site_fract_x
 _atom_site_fract_y
 _atom_site_fract_z
 _atom_site_occupancy
  Li  Li0  1  0.49803701  0.24961647  0.49966800  1
  Li  Li1  1  0.49803874  0.25038421  -0.00032807  1
  Li  Li2  1  -0.00196356  0.25038083  0.50032983  1
  Li  Li3  1  0.00195823  0.75038149  -0.00033859  1
  Li  Li4  1  0.50195835  0.74961530  0.00032882  1
  Li  Li5  1  0.00196531  0.74961991  0.49966947  1
  Li  Li6  1  -0.00196039  0.24961884  0.00033788  1
  Li  Li7  1  0.50196435  0.75038289  0.50033244  1
  I  I8  1  0.37656140  0.50238872  0.74951754  1
  I  I9  1  0.37656089  0.99761904  0.24951925  1
  I  I10  1  0.87656147  0.99761973  0.25048481  1
  I  I11  1  0.12343936  0.49761208  0.24951382  1
  I  I12  1  0.62343926  0.00238064  0.75048430  1
  I  I13  1  0.12343885  0.00238083  0.74951714  1
  I  I14  1  0.87656102  0.50238829  0.75048312  1
  I  I15  1  0.62343970  0.49761073  0.25048025  1
