# generated using pymatgen
data_NaI
_symmetry_space_group_name_H-M   'P 1'
_cell_length_a   9.46872497
_cell_length_b   5.48140672
_cell_length_c   6.51143529
_cell_angle_alpha   90.00057711
_cell_angle_beta   90.00053929
_cell_angle_gamma   89.99585624
_symmetry_Int_Tables_number   1
_chemical_formula_structural   NaI
_chemical_formula_sum   'Na4 I4'
_cell_volume   337.95607532
_cell_formula_units_Z   4
loop_
 _symmetry_equiv_pos_site_id
 _symmetry_equiv_pos_as_xyz
  1  'x, y, z'
loop_
 _atom_site_type_symbol
 _atom_site_label
 _atom_site_symmetry_multiplicity
 _atom_site_fract_x
 _atom_site_fract_y
 _atom_site_fract_z
 _atom_site_occupancy
  Na  Na0  1  0.08218662  0.75000024  0.01660266  1
  Na  Na1  1  0.58218673  0.24998484  0.01660169  1
  Na  Na2  1  -0.08218697  0.25000005  0.51659915  1
  Na  Na3  1  0.41781357  0.75001280  0.51659896  1
  I  I4  1  0.08378237  0.75042317  0.51875755  1
  I  I5  1  0.58378178  0.24953787  0.51875584  1
  I  I6  1  0.91621819  0.24957902  0.01875397  1
  I  I7  1  0.41621771  0.75046201  0.01875500  1
