# generated using pymatgen
data_LiBr
_symmetry_space_group_name_H-M   'P 1'
_cell_length_a   6.67938993
_cell_length_b   6.45115952
_cell_length_c   3.86312292
_cell_angle_alpha   89.99978847
_cell_angle_beta   89.99990810
_cell_angle_gamma   89.94575999
_symmetry_Int_Tables_number   1
_chemical_formula_structural   LiBr
_chemical_formula_sum   'Li4 Br4'
_cell_volume   166.46115787
_cell_formula_units_Z   4
loop_
 _symmetry_equiv_pos_site_id
 _symmetry_equiv_pos_as_xyz
  1  'x, y, z'
loop_
 _atom_site_type_symbol
 _atom_site_label
 _atom_site_symmetry_multiplicity
 _atom_site_fract_x
 _atom_site_fract_y
 _atom_site_fract_z
 _atom_site_occupancy
  Li  Li0  1  0.25030145  0.50171835  0.27629504  1
  Li  Li1  1  0.24941723  0.00146997  0.27494445  1
  Li  Li2  1  0.74971420  0.49828031  0.77630657  1
  Li  Li3  1  0.75057030  -0.00146751  0.77496999  1
  Br  Br4  1  -0.08357968  0.74968605  0.27594911  1
  Br  Br5  1  0.41644925  -0.24969814  0.77434749  1
  Br  Br6  1  0.08357874  0.25031515  0.77595028  1
  Br  Br7  1  0.58354852  0.24969582  0.27435716  1
