# generated using pymatgen
data_LiBr
_symmetry_space_group_name_H-M   'P 1'
_cell_length_a   11.40190302
_cell_length_b   11.40190843
_cell_length_c   7.97031904
_cell_angle_alpha   90.00590012
_cell_angle_beta   89.99408945
_cell_angle_gamma   120.00630624
_symmetry_Int_Tables_number   1
_chemical_formula_structural   LiBr
_chemical_formula_sum   'Li18 Br18'
_cell_volume   897.29164736
_cell_formula_units_Z   18
loop_
 _symmetry_equiv_pos_site_id
 _symmetry_equiv_pos_as_xyz
  1  'x, y, z'
loop_
 _atom_site_type_symbol
 _atom_site_label
 _atom_site_symmetry_multiplicity
 _atom_site_fract_x
 _atom_site_fract_y
 _atom_site_fract_z
 _atom_site_occupancy
  Li  Li0  1  0.92809158  0.46502119  0.62791431  1
  Li  Li1  1  0.92812102  0.46309071  0.12790055  1
  Li  Li2  1  0.86822343  0.73853768  0.79450057  1
  Li  Li3  1  0.87028345  0.13177175  0.79449769  1
  Li  Li4  1  0.20159957  0.79639386  0.96138173  1
  Li  Li5  1  0.53498406  0.46310068  0.62791953  1
  Li  Li6  1  0.87029536  0.73850707  0.29448313  1
  Li  Li7  1  0.86822793  0.12971617  0.29449998  1
  Li  Li8  1  0.53690846  0.07188027  0.62790108  1
  Li  Li9  1  0.53689805  0.46501456  0.12791808  1
  Li  Li10  1  0.26146167  0.13177556  0.29449986  1
  Li  Li11  1  0.26149188  0.12970454  0.79448168  1
  Li  Li12  1  0.20361331  0.40519650  0.96136671  1
  Li  Li13  1  0.20360567  0.79840030  0.46138166  1
  Li  Li14  1  0.53497817  0.07190760  0.12791493  1
  Li  Li15  1  0.20159396  0.40522790  0.46138410  1
  Li  Li16  1  0.59477492  0.79840907  0.96138357  1
  Li  Li17  1  0.59480197  0.79638571  0.46136545  1
  Br  Br18  1  0.09254152  0.54534703  0.88652987  1
  Br  Br19  1  0.09252082  0.54717339  0.38655956  1
  Br  Br20  1  0.78798217  0.57413342  0.05306994  1
  Br  Br21  1  0.78617160  0.21202209  0.05308712  1
  Br  Br22  1  0.12131936  0.88051463  0.21990788  1
  Br  Br23  1  0.45464562  0.54717354  0.88655253  1
  Br  Br24  1  0.78616894  0.57415411  0.55309938  1
  Br  Br25  1  0.78797737  0.21382876  0.55308779  1
  Br  Br26  1  0.45282671  0.90747953  0.88655982  1
  Br  Br27  1  0.45282743  0.54535417  0.38655279  1
  Br  Br28  1  0.42586686  0.21201768  0.55306919  1
  Br  Br29  1  0.42584560  0.21383091  0.05309732  1
  Br  Br30  1  0.11948277  0.24080622  0.21991727  1
  Br  Br31  1  0.11948576  0.87868092  0.71990824  1
  Br  Br32  1  0.45465272  0.90745943  0.38653058  1
  Br  Br33  1  0.12132294  0.24078768  0.71989123  1
  Br  Br34  1  0.75921298  0.87867760  0.21989060  1
  Br  Br35  1  0.75919440  0.88051778  0.71991609  1
