# generated using pymatgen
data_NaI
_symmetry_space_group_name_H-M   'P 1'
_cell_length_a   12.60525827
_cell_length_b   12.60444603
_cell_length_c   4.53726852
_cell_angle_alpha   89.99643812
_cell_angle_beta   90.00100366
_cell_angle_gamma   90.01410486
_symmetry_Int_Tables_number   1
_chemical_formula_structural   NaI
_chemical_formula_sum   'Na8 I8'
_cell_volume   720.89162301
_cell_formula_units_Z   8
loop_
 _symmetry_equiv_pos_site_id
 _symmetry_equiv_pos_as_xyz
  1  'x, y, z'
loop_
 _atom_site_type_symbol
 _atom_site_label
 _atom_site_symmetry_multiplicity
 _atom_site_fract_x
 _atom_site_fract_y
 _atom_site_fract_z
 _atom_site_occupancy
  Na  Na0  1  0.16066774  -0.00009885  0.88086316  1
  Na  Na1  1  0.50006069  0.16068820  0.63094074  1
  Na  Na2  1  -0.00008622  0.33929544  0.13078624  1
  Na  Na3  1  0.00006761  0.66067901  0.13093520  1
  Na  Na4  1  0.49991364  0.83930696  0.63077358  1
  Na  Na5  1  0.66068376  0.49990367  0.38087064  1
  Na  Na6  1  0.33932530  0.50010140  0.38095368  1
  Na  Na7  1  0.83932093  0.00009292  0.88095807  1
  I  I8  1  0.50008601  0.32869231  0.13876136  1
  I  I9  1  0.17133165  0.50015623  0.88885582  1
  I  I10  1  0.32869964  -0.00014462  0.38860908  1
  I  I11  1  0.67131642  0.00017532  0.38886499  1
  I  I12  1  0.82870045  0.49985278  0.88861330  1
  I  I13  1  0.00008474  0.82868598  0.63875296  1
  I  I14  1  -0.00009491  0.17130271  0.63863310  1
  I  I15  1  0.49992256  0.67131054  0.13862266  1
