# generated using pymatgen
data_LiBr
_symmetry_space_group_name_H-M   'P 1'
_cell_length_a   11.53697873
_cell_length_b   11.53702078
_cell_length_c   7.93261401
_cell_angle_alpha   90.02903715
_cell_angle_beta   89.97048430
_cell_angle_gamma   120.01861757
_symmetry_Int_Tables_number   1
_chemical_formula_structural   LiBr
_chemical_formula_sum   'Li18 Br18'
_cell_volume   914.22088808
_cell_formula_units_Z   18
loop_
 _symmetry_equiv_pos_site_id
 _symmetry_equiv_pos_as_xyz
  1  'x, y, z'
loop_
 _atom_site_type_symbol
 _atom_site_label
 _atom_site_symmetry_multiplicity
 _atom_site_fract_x
 _atom_site_fract_y
 _atom_site_fract_z
 _atom_site_occupancy
  Li  Li0  1  0.59326183  0.79787651  0.30433516  1
  Li  Li1  1  0.59334126  0.79543913  0.80433372  1
  Li  Li2  1  0.53541942  0.07342884  0.47120592  1
  Li  Li3  1  0.53803702  0.46458743  0.47123670  1
  Li  Li4  1  0.86868501  0.12861759  0.63788934  1
  Li  Li5  1  0.20207555  0.79533738  0.30441293  1
  Li  Li6  1  0.53795725  0.07338219  0.97121759  1
  Li  Li7  1  0.53541214  0.46196302  0.97123679  1
  Li  Li8  1  0.20455966  0.40665919  0.30433556  1
  Li  Li9  1  0.20466073  0.79792383  0.80441295  1
  Li  Li10  1  -0.07342808  0.46458089  0.97120194  1
  Li  Li11  1  -0.07338115  0.46204357  0.47121513  1
  Li  Li12  1  0.87130678  0.74001324  0.63787152  1
  Li  Li13  1  0.87138149  0.13131242  0.13789011  1
  Li  Li14  1  0.20212181  0.40673771  0.80433788  1
  Li  Li15  1  0.86868920  0.74006920  0.13784383  1
  Li  Li16  1  0.25993086  0.13131076  0.63784662  1
  Li  Li17  1  0.25998813  0.12869307  0.13787448  1
  Br  Br18  1  0.11959761  0.24117716  0.56521148  1
  Br  Br19  1  0.11959120  0.87846517  0.06530726  1
  Br  Br20  1  0.09212387  0.54701783  0.73193157  1
  Br  Br21  1  0.45488642  0.90784090  0.73191251  1
  Br  Br22  1  0.42551744  0.21175332  0.89868145  1
  Br  Br23  1  0.75888086  0.87845535  0.56518554  1
  Br  Br24  1  0.45485478  0.54699530  0.23197153  1
  Br  Br25  1  0.09215945  0.54511404  0.23190762  1
  Br  Br26  1  0.12153441  0.88040946  0.56530645  1
  Br  Br27  1  0.12154428  0.24111768  0.06518964  1
  Br  Br28  1  0.45298316  0.90787751  0.23193635  1
  Br  Br29  1  0.45300382  0.54514432  0.73197125  1
  Br  Br30  1  0.78819922  0.21374097  0.89874649  1
  Br  Br31  1  0.78824777  0.57448348  0.39868061  1
  Br  Br32  1  0.75882237  0.88040143  0.06520777  1
  Br  Br33  1  0.42549345  0.21372029  0.39870211  1
  Br  Br34  1  0.78628069  0.57450720  0.89870064  1
  Br  Br35  1  0.78626027  0.21180264  0.39874597  1
