# generated using pymatgen
data_LiBr
_symmetry_space_group_name_H-M   'P 1'
_cell_length_a   11.53779879
_cell_length_b   11.53780423
_cell_length_c   7.93531016
_cell_angle_alpha   90.00117835
_cell_angle_beta   89.99882393
_cell_angle_gamma   120.00319558
_symmetry_Int_Tables_number   1
_chemical_formula_structural   LiBr
_chemical_formula_sum   'Li18 Br18'
_cell_volume   914.80110102
_cell_formula_units_Z   18
loop_
 _symmetry_equiv_pos_site_id
 _symmetry_equiv_pos_as_xyz
  1  'x, y, z'
loop_
 _atom_site_type_symbol
 _atom_site_label
 _atom_site_symmetry_multiplicity
 _atom_site_fract_x
 _atom_site_fract_y
 _atom_site_fract_z
 _atom_site_occupancy
  Li  Li0  1  0.79498072  0.20144164  0.22111085  1
  Li  Li1  1  0.79497175  0.59353574  0.72112937  1
  Li  Li2  1  0.13189008  0.87168761  0.38777846  1
  Li  Li3  1  0.73980139  0.86810572  0.38779429  1
  Li  Li4  1  0.46522659  0.92686465  0.55446050  1
  Li  Li5  1  0.79856094  0.59353029  0.22112699  1
  Li  Li6  1  0.73979733  0.87169411  0.88779499  1
  Li  Li7  1  0.13189409  0.26019765  0.88779419  1
  Li  Li8  1  0.40646540  0.20502917  0.22112917  1
  Li  Li9  1  0.40646884  0.20143999  0.72112697  1
  Li  Li10  1  0.12831388  0.86811022  0.88777935  1
  Li  Li11  1  0.12830431  0.26020215  0.38779595  1
  Li  Li12  1  0.07313171  0.53836253  0.55446220  1
  Li  Li13  1  0.07313534  0.53477339  0.05446116  1
  Li  Li14  1  0.79855704  0.20502092  0.72111165  1
  Li  Li15  1  0.46522413  0.53835368  0.05444587  1
  Li  Li16  1  0.46164637  0.53477625  0.55444478  1
  Li  Li17  1  0.46163735  0.92686880  0.05446191  1
  Br  Br18  1  0.88076290  0.75879031  0.46032509  1
  Br  Br19  1  0.88076286  0.12197227  0.96030881  1
  Br  Br20  1  0.57454113  0.78590275  0.62699209  1
  Br  Br21  1  0.21136383  0.42546198  0.62699263  1
  Br  Br22  1  0.90787191  0.45530297  0.79365986  1
  Br  Br23  1  0.24120508  0.12196987  0.46032579  1
  Br  Br24  1  0.21135974  0.78590337  0.12697858  1
  Br  Br25  1  0.57453762  0.78863587  0.12699228  1
  Br  Br26  1  0.87802670  0.11923619  0.46031066  1
  Br  Br27  1  0.87803137  0.75879556  0.96032609  1
  Br  Br28  1  0.21409671  0.42545760  0.12699221  1
  Br  Br29  1  0.21409608  0.78864062  0.62697747  1
  Br  Br30  1  0.54469380  0.45257099  0.79364379  1
  Br  Br31  1  0.54469784  0.09212839  0.29365885  1
  Br  Br32  1  0.24120954  0.11923680  0.96032630  1
  Br  Br33  1  0.90787536  0.45256887  0.29365968  1
  Br  Br34  1  0.54742997  0.09212477  0.79365844  1
  Br  Br35  1  0.54743031  0.45530630  0.29364387  1
