# generated using pymatgen
data_LiBr
_symmetry_space_group_name_H-M   'P 1'
_cell_length_a   7.21047608
_cell_length_b   4.19392081
_cell_length_c   6.75450983
_cell_angle_alpha   89.99998060
_cell_angle_beta   89.99998835
_cell_angle_gamma   90.00006656
_symmetry_Int_Tables_number   1
_chemical_formula_structural   LiBr
_chemical_formula_sum   'Li4 Br4'
_cell_volume   204.25749613
_cell_formula_units_Z   4
loop_
 _symmetry_equiv_pos_site_id
 _symmetry_equiv_pos_as_xyz
  1  'x, y, z'
loop_
 _atom_site_type_symbol
 _atom_site_label
 _atom_site_symmetry_multiplicity
 _atom_site_fract_x
 _atom_site_fract_y
 _atom_site_fract_z
 _atom_site_occupancy
  Li  Li0  1  0.41593033  0.25160115  0.76988607  1
  Li  Li1  1  0.91593106  0.74839785  0.76988420  1
  Li  Li2  1  0.58406927  0.74839930  0.26988316  1
  Li  Li3  1  0.08406898  0.25160144  0.26988333  1
  Br  Br4  1  0.58170518  0.75177063  0.64843632  1
  Br  Br5  1  0.08170524  0.24822913  0.64843792  1
  Br  Br6  1  0.41829495  0.24822793  0.14843617  1
  Br  Br7  1  -0.08170501  0.75177257  0.14843671  1
