# generated using pymatgen
data_LiBr
_symmetry_space_group_name_H-M   'P 1'
_cell_length_a   11.00207954
_cell_length_b   3.89327725
_cell_length_c   3.88852719
_cell_angle_alpha   90.00005767
_cell_angle_beta   89.99999403
_cell_angle_gamma   89.99999984
_symmetry_Int_Tables_number   1
_chemical_formula_structural   LiBr
_chemical_formula_sum   'Li4 Br4'
_cell_volume   166.56174143
_cell_formula_units_Z   4
loop_
 _symmetry_equiv_pos_site_id
 _symmetry_equiv_pos_as_xyz
  1  'x, y, z'
loop_
 _atom_site_type_symbol
 _atom_site_label
 _atom_site_symmetry_multiplicity
 _atom_site_fract_x
 _atom_site_fract_y
 _atom_site_fract_z
 _atom_site_occupancy
  Li  Li0  1  0.37456937  0.75049245  0.00099573  1
  Li  Li1  1  0.62543064  0.25049260  0.49900326  1
  Li  Li2  1  0.12543099  0.24950528  0.50099524  1
  Li  Li3  1  0.87456903  0.74950544  0.99900578  1
  Br  Br4  1  0.87489549  0.25026319  0.49967211  1
  Br  Br5  1  0.12510448  0.75026306  0.00032774  1
  Br  Br6  1  0.62510442  0.74973908  -0.00032803  1
  Br  Br7  1  0.37489558  0.24973890  0.50032817  1
