# generated using pymatgen
data_NaI
_symmetry_space_group_name_H-M   'P 1'
_cell_length_a   4.65011922
_cell_length_b   7.37122593
_cell_length_c   9.20048113
_cell_angle_alpha   89.99954966
_cell_angle_beta   59.71964910
_cell_angle_gamma   90.00320781
_symmetry_Int_Tables_number   1
_chemical_formula_structural   NaI
_chemical_formula_sum   'Na4 I4'
_cell_volume   272.33982408
_cell_formula_units_Z   4
loop_
 _symmetry_equiv_pos_site_id
 _symmetry_equiv_pos_as_xyz
  1  'x, y, z'
loop_
 _atom_site_type_symbol
 _atom_site_label
 _atom_site_symmetry_multiplicity
 _atom_site_fract_x
 _atom_site_fract_y
 _atom_site_fract_z
 _atom_site_occupancy
  Na  Na0  1  -0.00082651  0.00146391  0.25040837  1
  Na  Na1  1  0.00080985  0.50146261  0.24958721  1
  Na  Na2  1  0.00082664  0.99853608  0.74959159  1
  Na  Na3  1  -0.00080993  0.49853739  0.75041283  1
  I  I4  1  0.66619377  0.24937193  0.08386728  1
  I  I5  1  0.33383845  0.74937702  0.41612595  1
  I  I6  1  0.33380620  0.75062806  0.91613272  1
  I  I7  1  0.66616152  0.25062299  0.58387405  1
