# generated using pymatgen
data_LiBr
_symmetry_space_group_name_H-M   'P 1'
_cell_length_a   5.48649065
_cell_length_b   5.51511752
_cell_length_c   5.50764688
_cell_angle_alpha   89.99967930
_cell_angle_beta   89.99997564
_cell_angle_gamma   89.99999671
_symmetry_Int_Tables_number   1
_chemical_formula_structural   LiBr
_chemical_formula_sum   'Li4 Br4'
_cell_volume   166.65390803
_cell_formula_units_Z   4
loop_
 _symmetry_equiv_pos_site_id
 _symmetry_equiv_pos_as_xyz
  1  'x, y, z'
loop_
 _atom_site_type_symbol
 _atom_site_label
 _atom_site_symmetry_multiplicity
 _atom_site_fract_x
 _atom_site_fract_y
 _atom_site_fract_z
 _atom_site_occupancy
  Li  Li0  1  -0.00372059  0.74996186  -0.08382155  1
  Li  Li1  1  0.49627957  0.25003766  -0.08382094  1
  Li  Li2  1  0.00372169  0.25004151  0.41616584  1
  Li  Li3  1  0.50372172  0.74995854  0.41616554  1
  Br  Br4  1  0.50113437  0.24973954  0.41715877  1
  Br  Br5  1  0.00113428  0.75026064  0.41715872  1
  Br  Br6  1  0.49886449  0.75026056  0.91715808  1
  Br  Br7  1  -0.00113553  0.24973970  0.91715805  1
