# generated using pymatgen
data_LiBr
_symmetry_space_group_name_H-M   'P 1'
_cell_length_a   11.92131807
_cell_length_b   11.92133235
_cell_length_c   7.30619352
_cell_angle_alpha   89.99953501
_cell_angle_beta   90.00044054
_cell_angle_gamma   120.00325997
_symmetry_Int_Tables_number   1
_chemical_formula_structural   LiBr
_chemical_formula_sum   'Li18 Br18'
_cell_volume   899.20063840
_cell_formula_units_Z   18
loop_
 _symmetry_equiv_pos_site_id
 _symmetry_equiv_pos_as_xyz
  1  'x, y, z'
loop_
 _atom_site_type_symbol
 _atom_site_label
 _atom_site_symmetry_multiplicity
 _atom_site_fract_x
 _atom_site_fract_y
 _atom_site_fract_z
 _atom_site_occupancy
  Li  Li0  1  0.20809352  0.04201354  0.81298991  1
  Li  Li1  1  0.20810255  0.16608321  0.31300086  1
  Li  Li2  1  0.29152886  0.45847623  -0.02056508  1
  Li  Li3  1  0.16693757  0.70848144  -0.02053696  1
  Li  Li4  1  0.62465078  0.49932906  0.14614620  1
  Li  Li5  1  -0.04202093  0.16608239  0.81303844  1
  Li  Li6  1  0.16694249  0.45845792  0.47944293  1
  Li  Li7  1  0.29151970  0.83306271  0.47946231  1
  Li  Li8  1  0.83391740  0.79189729  0.81300129  1
  Li  Li9  1  0.83391731  0.04202016  0.31303888  1
  Li  Li10  1  0.54152445  0.70847076  0.47943522  1
  Li  Li11  1  0.54154292  0.83305710  -0.02055846  1
  Li  Li12  1  0.50068292  0.12532408  0.14612656  1
  Li  Li13  1  0.50067020  0.37534694  0.64614225  1
  Li  Li14  1  -0.04201279  0.79190581  0.31299073  1
  Li  Li15  1  0.62464939  0.12535082  0.64609844  1
  Li  Li16  1  0.87464928  0.37535121  0.14609805  1
  Li  Li17  1  0.87467427  0.49931668  0.64612218  1
  Br  Br18  1  0.45813990  0.29111449  0.31343825  1
  Br  Br19  1  0.45813960  0.16702027  0.81342954  1
  Br  Br20  1  0.04204984  0.20855227  0.48001690  1
  Br  Br21  1  0.16651083  -0.04204853  0.47998509  1
  Br  Br22  1  0.37551713  0.50033754  0.64679090  1
  Br  Br23  1  0.70887519  0.16701732  0.31341745  1
  Br  Br24  1  0.16650942  0.20855279  -0.02000788  1
  Br  Br25  1  0.04204992  0.83349119  -0.02001440  1
  Br  Br26  1  0.83297910  0.54186017  0.31342813  1
  Br  Br27  1  0.83298285  0.29112450  0.81341729  1
  Br  Br28  1  0.79144774  -0.04204947  -0.01998329  1
  Br  Br29  1  0.79144838  0.83349089  0.47999143  1
  Br  Br30  1  0.49966391  0.87518014  0.64678176  1
  Br  Br31  1  0.49966158  0.62448305  0.14679164  1
  Br  Br32  1  0.70888446  0.54185879  0.81343948  1
  Br  Br33  1  0.37552110  0.87517079  0.14680099  1
  Br  Br34  1  0.12482942  0.62447970  0.64680165  1
  Br  Br35  1  0.12481973  0.50033678  0.14678244  1
