# generated using pymatgen
data_LiBr
_symmetry_space_group_name_H-M   'P 1'
_cell_length_a   11.53863162
_cell_length_b   11.53863381
_cell_length_c   7.91635939
_cell_angle_alpha   90.00405655
_cell_angle_beta   89.99602648
_cell_angle_gamma   120.00381121
_symmetry_Int_Tables_number   1
_chemical_formula_structural   LiBr
_chemical_formula_sum   'Li18 Br18'
_cell_volume   912.74224409
_cell_formula_units_Z   18
loop_
 _symmetry_equiv_pos_site_id
 _symmetry_equiv_pos_as_xyz
  1  'x, y, z'
loop_
 _atom_site_type_symbol
 _atom_site_label
 _atom_site_symmetry_multiplicity
 _atom_site_fract_x
 _atom_site_fract_y
 _atom_site_fract_z
 _atom_site_occupancy
  Li  Li0  1  0.92724816  0.46392750  0.18015430  1
  Li  Li1  1  0.92724716  0.46334526  0.68014446  1
  Li  Li2  1  0.86941031  0.73942260  0.34681974  1
  Li  Li3  1  0.86999626  0.13058135  0.34681788  1
  Li  Li4  1  0.20275668  0.79667182  0.51348750  1
  Li  Li5  1  0.53608743  0.46333426  0.18014877  1
  Li  Li6  1  0.86999453  0.73942237  0.84680854  1
  Li  Li7  1  0.86941621  0.13000546  0.84681573  1
  Li  Li8  1  0.53666432  0.07274836  0.18013989  1
  Li  Li9  1  0.53665946  0.46390956  0.68015163  1
  Li  Li10  1  0.26058078  0.13058974  0.84681996  1
  Li  Li11  1  0.26058645  0.13000518  0.34680789  1
  Li  Li12  1  0.20332407  0.40607890  0.51347660  1
  Li  Li13  1  0.20333211  0.79725099  0.01348169  1
  Li  Li14  1  0.53608123  0.07275339  0.68015278  1
  Li  Li15  1  0.20274060  0.40608624  0.01348492  1
  Li  Li16  1  0.59391058  0.79724952  0.51348539  1
  Li  Li17  1  0.59391548  0.79666843  0.01347428  1
  Br  Br18  1  0.09269169  0.54665382  0.94053398  1
  Br  Br19  1  0.09269973  0.54603532  0.44053539  1
  Br  Br20  1  0.78668365  0.57398064  0.10719913  1
  Br  Br21  1  0.78730127  0.21332021  0.10722695  1
  Br  Br22  1  0.12001930  0.87936780  0.27389185  1
  Br  Br23  1  0.45334615  0.54603156  0.94055848  1
  Br  Br24  1  0.78730102  0.57397169  0.60720127  1
  Br  Br25  1  0.78668467  0.21270746  0.60722635  1
  Br  Br26  1  0.45396569  0.90730006  0.94053624  1
  Br  Br27  1  0.45396043  0.54664507  0.44055696  1
  Br  Br28  1  0.42602092  0.21331464  0.60720227  1
  Br  Br29  1  0.42603164  0.21269762  0.10720159  1
  Br  Br30  1  0.12063230  0.24063418  0.27386908  1
  Br  Br31  1  0.12063158  0.87998440  0.77389361  1
  Br  Br32  1  0.45334756  0.90730878  0.44053146  1
  Br  Br33  1  0.12001375  0.24064226  0.77386835  1
  Br  Br34  1  0.75935520  0.87998541  0.27386355  1
  Br  Br35  1  0.75936161  0.87936814  0.77387134  1
