# generated using pymatgen
data_LiBr
_symmetry_space_group_name_H-M   'P 1'
_cell_length_a   11.67009669
_cell_length_b   11.67068331
_cell_length_c   9.65494341
_cell_angle_alpha   89.99392553
_cell_angle_beta   90.00282501
_cell_angle_gamma   120.00102052
_symmetry_Int_Tables_number   1
_chemical_formula_structural   LiBr
_chemical_formula_sum   'Li18 Br18'
_cell_volume   1138.79783895
_cell_formula_units_Z   18
loop_
 _symmetry_equiv_pos_site_id
 _symmetry_equiv_pos_as_xyz
  1  'x, y, z'
loop_
 _atom_site_type_symbol
 _atom_site_label
 _atom_site_symmetry_multiplicity
 _atom_site_fract_x
 _atom_site_fract_y
 _atom_site_fract_z
 _atom_site_occupancy
  Li  Li0  1  0.89070171  0.53926744  0.94004907  1
  Li  Li1  1  0.01808034  0.22405140  0.39326791  1
  Li  Li2  1  0.10929848  0.46073273  0.05995303  1
  Li  Li3  1  0.64858552  0.10928191  0.94006655  1
  Li  Li4  1  0.20599274  -0.01808310  0.39325296  1
  Li  Li5  1  0.53932504  0.64858377  0.05991874  1
  Li  Li6  1  0.12734207  0.68474938  0.27341472  1
  Li  Li7  1  0.46067478  0.35141707  0.94007979  1
  Li  Li8  1  0.35141419  0.89071957  0.05993248  1
  Li  Li9  1  0.87266007  0.31525119  0.72658752  1
  Li  Li10  1  0.79400556  0.01808199  0.60674708  1
  Li  Li11  1  0.31525255  0.44261378  0.27339960  1
  Li  Li12  1  0.68474824  0.55738594  0.72660002  1
  Li  Li13  1  -0.01808111  0.77594726  0.60673216  1
  Li  Li14  1  0.55736793  0.87259953  0.27338002  1
  Li  Li15  1  0.44263212  0.12740118  0.72661842  1
  Li  Li16  1  0.77596576  0.79406732  0.39328365  1
  Li  Li17  1  0.22403399  0.20593232  0.60671635  1
  Br  Br18  1  0.31408823  0.44540343  0.00895754  1
  Br  Br19  1  0.53542483  0.64741885  0.32438140  1
  Br  Br20  1  0.68591173  0.55459717  -0.00895759  1
  Br  Br21  1  0.13124250  0.68591393  0.00895109  1
  Br  Br22  1  0.11205919  0.46463249  0.32439549  1
  Br  Br23  1  0.44539147  0.13129975  -0.00893886  1
  Br  Br24  1  0.22127426  0.20203318  0.34227294  1
  Br  Br25  1  0.55460782  0.86870047  0.00893758  1
  Br  Br26  1  0.86875764  0.31408598  -0.00894894  1
  Br  Br27  1  0.77872539  0.79796560  0.65772628  1
  Br  Br28  1  0.88794207  0.53536709  0.67560657  1
  Br  Br29  1  0.79790744  0.01924778  0.34228395  1
  Br  Br30  1  0.20209209  0.98075169  0.65771589  1
  Br  Br31  1  0.46457405  0.35258114  0.67561702  1
  Br  Br32  1  0.98075632  0.77873719  0.34228971  1
  Br  Br33  1  0.01924374  0.22126118  0.65771016  1
  Br  Br34  1  0.35257880  0.88793033  0.32437512  1
  Br  Br35  1  0.64742243  0.11207205  0.67562459  1
