# generated using pymatgen
data_LiI
_symmetry_space_group_name_H-M   'P 1'
_cell_length_a   4.24111612
_cell_length_b   7.35461223
_cell_length_c   6.91971136
_cell_angle_alpha   89.99891578
_cell_angle_beta   89.73010526
_cell_angle_gamma   89.99986830
_symmetry_Int_Tables_number   1
_chemical_formula_structural   LiI
_chemical_formula_sum   'Li4 I4'
_cell_volume   215.83561238
_cell_formula_units_Z   4
loop_
 _symmetry_equiv_pos_site_id
 _symmetry_equiv_pos_as_xyz
  1  'x, y, z'
loop_
 _atom_site_type_symbol
 _atom_site_label
 _atom_site_symmetry_multiplicity
 _atom_site_fract_x
 _atom_site_fract_y
 _atom_site_fract_z
 _atom_site_occupancy
  Li  Li0  1  0.35789675  -0.00148175  0.37187718  1
  Li  Li1  1  0.85789678  0.49852217  0.37187850  1
  Li  Li2  1  0.35789772  0.00148180  0.87187755  1
  Li  Li3  1  0.85789825  0.50147752  0.87187839  1
  I  I4  1  0.35900145  0.33331356  0.62137206  1
  I  I5  1  0.85900197  0.83331366  0.62137204  1
  I  I6  1  0.35900052  0.66668652  0.12137205  1
  I  I7  1  0.85900103  0.16668653  0.12137203  1
