# generated using pymatgen
data_LiBr
_symmetry_space_group_name_H-M   'P 1'
_cell_length_a   3.86421914
_cell_length_b   6.68097820
_cell_length_c   6.44399732
_cell_angle_alpha   90.00000358
_cell_angle_beta   90.00000756
_cell_angle_gamma   89.99999785
_symmetry_Int_Tables_number   1
_chemical_formula_structural   LiBr
_chemical_formula_sum   'Li4 Br4'
_cell_volume   166.36315692
_cell_formula_units_Z   4
loop_
 _symmetry_equiv_pos_site_id
 _symmetry_equiv_pos_as_xyz
  1  'x, y, z'
loop_
 _atom_site_type_symbol
 _atom_site_label
 _atom_site_symmetry_multiplicity
 _atom_site_fract_x
 _atom_site_fract_y
 _atom_site_fract_z
 _atom_site_occupancy
  Li  Li0  1  0.24706845  0.00091854  -0.00017332  1
  Li  Li1  1  0.75293160  0.50091826  0.50017242  1
  Li  Li2  1  0.25293202  -0.00091838  0.49982721  1
  Li  Li3  1  0.74706793  0.49908202  0.00017367  1
  Br  Br4  1  0.75103176  0.16693444  0.74983617  1
  Br  Br5  1  0.24896821  0.66693439  0.75016384  1
  Br  Br6  1  0.74896830  0.83306539  0.24983629  1
  Br  Br7  1  0.25103174  0.33306534  0.25016372  1
