# generated using pymatgen
data_LiBr
_symmetry_space_group_name_H-M   'P 1'
_cell_length_a   4.26791306
_cell_length_b   6.84053726
_cell_length_c   6.87524818
_cell_angle_alpha   89.99986915
_cell_angle_beta   90.23224661
_cell_angle_gamma   89.99996783
_symmetry_Int_Tables_number   1
_chemical_formula_structural   LiBr
_chemical_formula_sum   'Li4 Br4'
_cell_volume   200.71997252
_cell_formula_units_Z   4
loop_
 _symmetry_equiv_pos_site_id
 _symmetry_equiv_pos_as_xyz
  1  'x, y, z'
loop_
 _atom_site_type_symbol
 _atom_site_label
 _atom_site_symmetry_multiplicity
 _atom_site_fract_x
 _atom_site_fract_y
 _atom_site_fract_z
 _atom_site_occupancy
  Li  Li0  1  0.66733471  0.33439460  0.60912362  1
  Li  Li1  1  0.16733377  0.83439490  0.60912334  1
  Li  Li2  1  0.66732397  0.66560461  0.10912155  1
  Li  Li3  1  0.16732242  0.16560458  0.10912288  1
  Br  Br4  1  0.16694640  0.82057640  0.98019859  1
  Br  Br5  1  0.66694616  0.32057588  0.98019907  1
  Br  Br6  1  0.16695845  0.17942464  0.48020282  1
  Br  Br7  1  0.66695488  0.67942440  0.48020040  1
