# generated using pymatgen
data_LiBr
_symmetry_space_group_name_H-M   'P 1'
_cell_length_a   7.48692679
_cell_length_b   4.55822101
_cell_length_c   6.53575178
_cell_angle_alpha   89.99999834
_cell_angle_beta   90.00002101
_cell_angle_gamma   89.99999228
_symmetry_Int_Tables_number   1
_chemical_formula_structural   LiBr
_chemical_formula_sum   'Li4 Br4'
_cell_volume   223.04603888
_cell_formula_units_Z   4
loop_
 _symmetry_equiv_pos_site_id
 _symmetry_equiv_pos_as_xyz
  1  'x, y, z'
loop_
 _atom_site_type_symbol
 _atom_site_label
 _atom_site_symmetry_multiplicity
 _atom_site_fract_x
 _atom_site_fract_y
 _atom_site_fract_z
 _atom_site_occupancy
  Li  Li0  1  0.85657959  0.74974427  0.84110197  1
  Li  Li1  1  0.14342036  0.24974420  0.65889797  1
  Li  Li2  1  0.64342074  0.25025538  0.34110148  1
  Li  Li3  1  0.35657928  0.75025544  0.15889860  1
  Br  Br4  1  0.70030211  0.74995463  0.17823221  1
  Br  Br5  1  0.29969788  0.24995473  0.32176777  1
  Br  Br6  1  0.79969789  0.25004571  0.67823181  1
  Br  Br7  1  0.20030215  0.75004564  0.82176819  1
