# generated using pymatgen
data_LiBr
_symmetry_space_group_name_H-M   'P 1'
_cell_length_a   3.96531296
_cell_length_b   3.96533214
_cell_length_c   8.93568065
_cell_angle_alpha   89.99932455
_cell_angle_beta   90.00059931
_cell_angle_gamma   120.00100345
_symmetry_Int_Tables_number   1
_chemical_formula_structural   LiBr
_chemical_formula_sum   'Li3 Br3'
_cell_volume   121.67767928
_cell_formula_units_Z   3
loop_
 _symmetry_equiv_pos_site_id
 _symmetry_equiv_pos_as_xyz
  1  'x, y, z'
loop_
 _atom_site_type_symbol
 _atom_site_label
 _atom_site_symmetry_multiplicity
 _atom_site_fract_x
 _atom_site_fract_y
 _atom_site_fract_z
 _atom_site_occupancy
  Li  Li0  1  0.33338281  0.33279387  0.02256787  1
  Li  Li1  1  0.66720469  0.00057926  0.68923631  1
  Li  Li2  1  -0.00058865  0.66662883  0.35590263  1
  Br  Br3  1  0.66720528  -0.00035898  0.18884660  1
  Br  Br4  1  0.00035936  0.66756224  0.85551295  1
  Br  Br5  1  0.33243650  0.33279477  0.52217823  1
