# generated using pymatgen
data_LiI
_symmetry_space_group_name_H-M   'P 1'
_cell_length_a   4.31279170
_cell_length_b   4.30697988
_cell_length_c   11.59858451
_cell_angle_alpha   90.00016369
_cell_angle_beta   90.00025847
_cell_angle_gamma   89.95854625
_symmetry_Int_Tables_number   1
_chemical_formula_structural   LiI
_chemical_formula_sum   'Li4 I4'
_cell_volume   215.44489286
_cell_formula_units_Z   4
loop_
 _symmetry_equiv_pos_site_id
 _symmetry_equiv_pos_as_xyz
  1  'x, y, z'
loop_
 _atom_site_type_symbol
 _atom_site_label
 _atom_site_symmetry_multiplicity
 _atom_site_fract_x
 _atom_site_fract_y
 _atom_site_fract_z
 _atom_site_occupancy
  Li  Li0  1  0.50210892  -0.00008413  0.66895467  1
  Li  Li1  1  0.00398372  0.50111669  0.91884713  1
  Li  Li2  1  0.49789308  0.00007066  0.16894627  1
  Li  Li3  1  -0.00395517  0.49890314  0.41884323  1
  I  I4  1  0.50200179  0.00081957  0.91844063  1
  I  I5  1  0.00036221  0.49960314  0.16850263  1
  I  I6  1  0.49798633  -0.00082099  0.41841625  1
  I  I7  1  -0.00038089  0.50039191  0.66850919  1
