# generated using pymatgen
data_KI
_symmetry_space_group_name_H-M   'P 1'
_cell_length_a   8.54206696
_cell_length_b   4.93459796
_cell_length_c   8.87026273
_cell_angle_alpha   89.99999654
_cell_angle_beta   90.00000041
_cell_angle_gamma   89.99999046
_symmetry_Int_Tables_number   1
_chemical_formula_structural   KI
_chemical_formula_sum   'K4 I4'
_cell_volume   373.89635370
_cell_formula_units_Z   4
loop_
 _symmetry_equiv_pos_site_id
 _symmetry_equiv_pos_as_xyz
  1  'x, y, z'
loop_
 _atom_site_type_symbol
 _atom_site_label
 _atom_site_symmetry_multiplicity
 _atom_site_fract_x
 _atom_site_fract_y
 _atom_site_fract_z
 _atom_site_occupancy
  K  K0  1  0.41583042  0.75233930  0.73288198  1
  K  K1  1  0.91583038  0.24766048  0.73288213  1
  K  K2  1  0.58416963  0.24766097  0.23288169  1
  K  K3  1  0.08416963  0.75233926  0.23288164  1
  I  I4  1  0.25021837  0.25269352  -0.01711823  1
  I  I5  1  0.75021829  0.74730640  -0.01711816  1
  I  I6  1  0.74978164  0.74730661  0.48288160  1
  I  I7  1  0.24978164  0.25269345  0.48288159  1
