# generated using pymatgen
data_LiBr
_symmetry_space_group_name_H-M   'P 1'
_cell_length_a   3.89649347
_cell_length_b   3.89165410
_cell_length_c   11.00432509
_cell_angle_alpha   90.00001736
_cell_angle_beta   89.99971043
_cell_angle_gamma   90.00302953
_symmetry_Int_Tables_number   1
_chemical_formula_structural   LiBr
_chemical_formula_sum   'Li4 Br4'
_cell_volume   166.86743748
_cell_formula_units_Z   4
loop_
 _symmetry_equiv_pos_site_id
 _symmetry_equiv_pos_as_xyz
  1  'x, y, z'
loop_
 _atom_site_type_symbol
 _atom_site_label
 _atom_site_symmetry_multiplicity
 _atom_site_fract_x
 _atom_site_fract_y
 _atom_site_fract_z
 _atom_site_occupancy
  Li  Li0  1  -0.00007156  0.50296994  0.87046268  1
  Li  Li1  1  0.50304915  0.00016348  0.61988717  1
  Li  Li2  1  0.00007232  0.49703461  0.37046327  1
  Li  Li3  1  0.49694860  -0.00016623  0.11988737  1
  Br  Br4  1  0.50023108  -0.00219576  0.37046050  1
  Br  Br5  1  -0.00233255  0.49971151  0.12048324  1
  Br  Br6  1  0.49976993  0.00219514  0.87046019  1
  Br  Br7  1  0.00233304  0.50028731  0.62048335  1
