# generated using pymatgen
data_LiBr
_symmetry_space_group_name_H-M   'P 1'
_cell_length_a   6.68602334
_cell_length_b   6.44861129
_cell_length_c   3.85990226
_cell_angle_alpha   90.00000860
_cell_angle_beta   89.99986943
_cell_angle_gamma   89.99999012
_symmetry_Int_Tables_number   1
_chemical_formula_structural   LiBr
_chemical_formula_sum   'Li4 Br4'
_cell_volume   166.42186933
_cell_formula_units_Z   4
loop_
 _symmetry_equiv_pos_site_id
 _symmetry_equiv_pos_as_xyz
  1  'x, y, z'
loop_
 _atom_site_type_symbol
 _atom_site_label
 _atom_site_symmetry_multiplicity
 _atom_site_fract_x
 _atom_site_fract_y
 _atom_site_fract_z
 _atom_site_occupancy
  Li  Li0  1  0.50109437  0.49884867  0.24745242  1
  Li  Li1  1  0.49890596  -0.00115161  0.25254974  1
  Li  Li2  1  -0.00110564  0.50115005  0.74744365  1
  Li  Li3  1  0.00110558  0.00115029  0.75255420  1
  Br  Br4  1  0.66689106  0.25016413  0.75101842  1
  Br  Br5  1  0.33310880  0.75016368  0.74898148  1
  Br  Br6  1  0.83310827  0.74983766  0.25101851  1
  Br  Br7  1  0.16689160  0.24983714  0.24898158  1
