# generated using pymatgen
data_NaI
_symmetry_space_group_name_H-M   'P 1'
_cell_length_a   10.26838386
_cell_length_b   10.26838414
_cell_length_c   7.71798439
_cell_angle_alpha   90.00004101
_cell_angle_beta   89.99740984
_cell_angle_gamma   89.99999067
_symmetry_Int_Tables_number   1
_chemical_formula_structural   NaI
_chemical_formula_sum   'Na8 I8'
_cell_volume   813.78203470
_cell_formula_units_Z   8
loop_
 _symmetry_equiv_pos_site_id
 _symmetry_equiv_pos_as_xyz
  1  'x, y, z'
loop_
 _atom_site_type_symbol
 _atom_site_label
 _atom_site_symmetry_multiplicity
 _atom_site_fract_x
 _atom_site_fract_y
 _atom_site_fract_z
 _atom_site_occupancy
  Na  Na0  1  0.64053381  0.13993911  -0.05860282  1
  Na  Na1  1  0.36006044  0.14053533  0.44139197  1
  Na  Na2  1  0.35946472  0.86006086  -0.05860183  1
  Na  Na3  1  0.13993861  0.35946619  -0.05859660  1
  Na  Na4  1  0.86006044  0.64053537  -0.05860790  1
  Na  Na5  1  0.85946465  0.36006085  0.44139831  1
  Na  Na6  1  0.63993861  0.85946623  0.44140325  1
  Na  Na7  1  0.14053388  0.63993914  0.44139727  1
  I  I8  1  0.15441221  0.65339412  0.84379899  1
  I  I9  1  0.84660522  0.65440975  0.34379917  1
  I  I10  1  0.84559131  0.34660566  0.84380557  1
  I  I11  1  0.65339369  0.84558893  0.84380532  1
  I  I12  1  0.34660521  0.15440976  0.84379905  1
  I  I13  1  0.34559132  0.84660566  0.34380545  1
  I  I14  1  0.15339366  0.34558892  0.34380544  1
  I  I15  1  0.65441221  0.15339411  0.34379888  1
