# generated using pymatgen
data_LiBr
_symmetry_space_group_name_H-M   'P 1'
_cell_length_a   6.93993145
_cell_length_b   8.36409181
_cell_length_c   7.33281073
_cell_angle_alpha   90.00001219
_cell_angle_beta   90.00005265
_cell_angle_gamma   90.00015006
_symmetry_Int_Tables_number   1
_chemical_formula_structural   LiBr
_chemical_formula_sum   'Li8 Br8'
_cell_volume   425.64197293
_cell_formula_units_Z   8
loop_
 _symmetry_equiv_pos_site_id
 _symmetry_equiv_pos_as_xyz
  1  'x, y, z'
loop_
 _atom_site_type_symbol
 _atom_site_label
 _atom_site_symmetry_multiplicity
 _atom_site_fract_x
 _atom_site_fract_y
 _atom_site_fract_z
 _atom_site_occupancy
  Li  Li0  1  0.33704217  0.36917890  0.41162170  1
  Li  Li1  1  0.33704193  0.13082050  0.91162183  1
  Li  Li2  1  0.83704160  0.13082116  0.58837871  1
  Li  Li3  1  0.16295798  0.63082126  0.91162074  1
  Li  Li4  1  0.66295755  0.86917800  0.08837760  1
  Li  Li5  1  0.16295794  0.86917874  0.41162160  1
  Li  Li6  1  0.83704228  0.36917888  0.08837819  1
  Li  Li7  1  0.66295901  0.63082267  0.58837885  1
  Br  Br8  1  0.79171278  0.86880416  0.41175425  1
  Br  Br9  1  0.79171242  0.63119535  0.91175492  1
  Br  Br10  1  0.29171297  0.63119578  0.58824453  1
  Br  Br11  1  0.70828747  0.13119599  0.91175567  1
  Br  Br12  1  0.20828734  0.36880427  0.08824522  1
  Br  Br13  1  0.70828729  0.36880390  0.41175516  1
  Br  Br14  1  0.29171183  0.86880401  0.08824563  1
  Br  Br15  1  0.20828743  0.13119644  0.58824540  1
