# generated using pymatgen
data_LiBr
_symmetry_space_group_name_H-M   'P 1'
_cell_length_a   7.79848458
_cell_length_b   7.79848471
_cell_length_c   11.00250900
_cell_angle_alpha   90.00000000
_cell_angle_beta   89.99999857
_cell_angle_gamma   90.00010423
_symmetry_Int_Tables_number   1
_chemical_formula_structural   LiBr
_chemical_formula_sum   'Li16 Br16'
_cell_volume   669.13257925
_cell_formula_units_Z   16
loop_
 _symmetry_equiv_pos_site_id
 _symmetry_equiv_pos_as_xyz
  1  'x, y, z'
loop_
 _atom_site_type_symbol
 _atom_site_label
 _atom_site_symmetry_multiplicity
 _atom_site_fract_x
 _atom_site_fract_y
 _atom_site_fract_z
 _atom_site_occupancy
  Li  Li0  1  0.75083538  -0.00138036  0.28627990  1
  Li  Li1  1  0.49861838  0.75083308  0.53628176  1
  Li  Li2  1  0.24916375  -0.00138030  0.78628404  1
  Li  Li3  1  0.24916463  0.00138057  0.28628166  1
  Li  Li4  1  0.50137964  0.24916645  0.53628123  1
  Li  Li5  1  0.00138263  0.25083622  0.53628106  1
  Li  Li6  1  -0.00137998  0.74916363  0.53628223  1
  Li  Li7  1  0.50138187  0.75083639  0.03628252  1
  Li  Li8  1  0.49861894  0.24916413  0.03628383  1
  Li  Li9  1  0.74916741  0.50138060  0.78628282  1
  Li  Li10  1  0.00137957  0.74916593  0.03628216  1
  Li  Li11  1  0.25083380  0.49862092  0.78628172  1
  Li  Li12  1  -0.00138033  0.25083375  0.03628183  1
  Li  Li13  1  0.74916627  0.49861892  0.28628261  1
  Li  Li14  1  0.25083393  0.50137891  0.28628082  1
  Li  Li15  1  0.75083618  0.00137999  0.78628184  1
  Br  Br16  1  0.25005255  0.00001593  0.03639335  1
  Br  Br17  1  0.50001460  0.25005470  0.28639474  1
  Br  Br18  1  0.74994592  0.00001546  0.53639301  1
  Br  Br19  1  0.74994752  -0.00001438  0.03639314  1
  Br  Br20  1  0.49998408  0.74994440  0.28639503  1
  Br  Br21  1  -0.00001580  0.75005357  0.28639393  1
  Br  Br22  1  0.00001578  0.24994536  0.28639423  1
  Br  Br23  1  0.49998512  0.25005475  0.78639119  1
  Br  Br24  1  0.50001619  0.74994420  0.78639161  1
  Br  Br25  1  0.24994428  0.49998538  0.53639287  1
  Br  Br26  1  -0.00001624  0.24994493  0.78639157  1
  Br  Br27  1  0.75005573  0.50001649  0.53639318  1
  Br  Br28  1  0.00001386  0.75005435  0.78639118  1
  Br  Br29  1  0.24994441  0.50001625  0.03639308  1
  Br  Br30  1  0.75005584  0.49998450  0.03639256  1
  Br  Br31  1  0.25005406  -0.00001470  0.53639297  1
