# generated using pymatgen
data_LiI
_symmetry_space_group_name_H-M   'P 1'
_cell_length_a   4.27402337
_cell_length_b   4.27842472
_cell_length_c   11.84546408
_cell_angle_alpha   89.99999747
_cell_angle_beta   90.00000237
_cell_angle_gamma   90.00004602
_symmetry_Int_Tables_number   1
_chemical_formula_structural   LiI
_chemical_formula_sum   'Li4 I4'
_cell_volume   216.60718971
_cell_formula_units_Z   4
loop_
 _symmetry_equiv_pos_site_id
 _symmetry_equiv_pos_as_xyz
  1  'x, y, z'
loop_
 _atom_site_type_symbol
 _atom_site_label
 _atom_site_symmetry_multiplicity
 _atom_site_fract_x
 _atom_site_fract_y
 _atom_site_fract_z
 _atom_site_occupancy
  Li  Li0  1  0.74784325  0.49251657  0.37487311  1
  Li  Li1  1  0.25216094  -0.00748218  0.12512664  1
  Li  Li2  1  0.75215195  0.50748648  0.87487367  1
  Li  Li3  1  0.24784238  0.00748218  0.62512651  1
  I  I4  1  0.24815549  -0.00201380  0.37504794  1
  I  I5  1  0.75184721  0.49798713  0.12495211  1
  I  I6  1  0.25184367  0.00201189  0.87504801  1
  I  I7  1  0.74815510  0.50201174  0.62495201  1
