# generated using pymatgen
data_LiBr
_symmetry_space_group_name_H-M   'P 1'
_cell_length_a   6.86709905
_cell_length_b   4.50973757
_cell_length_c   7.27901087
_cell_angle_alpha   89.99769360
_cell_angle_beta   90.00019760
_cell_angle_gamma   89.99997586
_symmetry_Int_Tables_number   1
_chemical_formula_structural   LiBr
_chemical_formula_sum   'Li4 Br4'
_cell_volume   225.42233775
_cell_formula_units_Z   4
loop_
 _symmetry_equiv_pos_site_id
 _symmetry_equiv_pos_as_xyz
  1  'x, y, z'
loop_
 _atom_site_type_symbol
 _atom_site_label
 _atom_site_symmetry_multiplicity
 _atom_site_fract_x
 _atom_site_fract_y
 _atom_site_fract_z
 _atom_site_occupancy
  Li  Li0  1  0.50066189  0.49970905  0.44021192  1
  Li  Li1  1  0.00065358  0.50028828  0.44021060  1
  Li  Li2  1  0.49934538  0.50028917  0.94024410  1
  Li  Li3  1  -0.00066090  0.49970690  0.94024814  1
  Br  Br4  1  0.75037778  0.33471612  0.69035972  1
  Br  Br5  1  0.25037721  0.66528716  0.69035387  1
  Br  Br6  1  0.24962293  0.66528681  0.19041181  1
  Br  Br7  1  0.74962212  0.33471650  0.19042060  1
