# generated using pymatgen
data_LiBr
_symmetry_space_group_name_H-M   'P 1'
_cell_length_a   11.88419416
_cell_length_b   10.61099272
_cell_length_c   8.14945849
_cell_angle_alpha   89.99986767
_cell_angle_beta   89.99989853
_cell_angle_gamma   89.99896089
_symmetry_Int_Tables_number   1
_chemical_formula_structural   LiBr
_chemical_formula_sum   'Li16 Br16'
_cell_volume   1027.67195960
_cell_formula_units_Z   16
loop_
 _symmetry_equiv_pos_site_id
 _symmetry_equiv_pos_as_xyz
  1  'x, y, z'
loop_
 _atom_site_type_symbol
 _atom_site_label
 _atom_site_symmetry_multiplicity
 _atom_site_fract_x
 _atom_site_fract_y
 _atom_site_fract_z
 _atom_site_occupancy
  Li  Li0  1  0.13862193  0.50048083  0.58145254  1
  Li  Li1  1  0.86137869  0.49951528  0.58144667  1
  Li  Li2  1  0.11137849  0.75048368  0.83144560  1
  Li  Li3  1  0.36137862  0.49951701  0.08145073  1
  Li  Li4  1  0.61137881  0.75048466  0.33144965  1
  Li  Li5  1  0.38862118  0.74951737  0.83145075  1
  Li  Li6  1  0.63862122  0.50048478  0.08144908  1
  Li  Li7  1  0.61137726  0.25048561  0.83144742  1
  Li  Li8  1  0.38862065  0.24951636  0.33144871  1
  Li  Li9  1  0.63862180  0.00048173  0.58145475  1
  Li  Li10  1  0.36137936  -0.00048442  0.58144623  1
  Li  Li11  1  0.11137846  0.25048336  0.33144887  1
  Li  Li12  1  0.88862356  0.74951559  0.33144709  1
  Li  Li13  1  0.88861841  0.24951666  0.83145031  1
  Li  Li14  1  0.13862105  0.00048401  0.08144574  1
  Li  Li15  1  0.86137833  -0.00048254  0.08145392  1
  Br  Br16  1  0.25074479  0.43543182  0.33222907  1
  Br  Br17  1  0.74925590  0.56456844  0.33222523  1
  Br  Br18  1  -0.00074847  0.68542907  0.58223067  1
  Br  Br19  1  0.24925556  0.56456833  0.83222860  1
  Br  Br20  1  0.49924906  0.68543308  0.08223540  1
  Br  Br21  1  0.50075080  0.81456688  0.58223550  1
  Br  Br22  1  0.75074425  0.43543381  0.83222560  1
  Br  Br23  1  0.49924999  0.18543103  0.58223226  1
  Br  Br24  1  0.50075028  0.31456922  0.08223434  1
  Br  Br25  1  0.75074710  0.93543143  0.33223281  1
  Br  Br26  1  0.24925607  0.06456774  0.33222367  1
  Br  Br27  1  -0.00075060  0.18543305  0.08223392  1
  Br  Br28  1  0.00075013  0.81456885  0.08223073  1
  Br  Br29  1  0.00075022  0.31456615  0.58223506  1
  Br  Br30  1  0.25074416  0.93543214  0.83222381  1
  Br  Br31  1  0.74925295  0.06456897  0.83223254  1
