# generated using pymatgen
data_LiBr
_symmetry_space_group_name_H-M   'P 1'
_cell_length_a   7.83507043
_cell_length_b   4.48359438
_cell_length_c   5.55310713
_cell_angle_alpha   89.99990640
_cell_angle_beta   90.00000279
_cell_angle_gamma   89.99988512
_symmetry_Int_Tables_number   1
_chemical_formula_structural   LiBr
_chemical_formula_sum   'Li4 Br4'
_cell_volume   195.07664243
_cell_formula_units_Z   4
loop_
 _symmetry_equiv_pos_site_id
 _symmetry_equiv_pos_as_xyz
  1  'x, y, z'
loop_
 _atom_site_type_symbol
 _atom_site_label
 _atom_site_symmetry_multiplicity
 _atom_site_fract_x
 _atom_site_fract_y
 _atom_site_fract_z
 _atom_site_occupancy
  Li  Li0  1  0.91612217  0.75062361  0.29614206  1
  Li  Li1  1  0.41612732  0.24937610  0.29614121  1
  Li  Li2  1  0.08387234  0.24937728  0.79614147  1
  Li  Li3  1  0.58387764  0.75062173  0.79614253  1
  Br  Br4  1  0.08427190  0.25028644  0.29211486  1
  Br  Br5  1  0.58427342  0.74971405  0.29211522  1
  Br  Br6  1  0.91572686  0.74970303  0.79211512  1
  Br  Br7  1  0.41572835  0.25029776  0.79211484  1
