# generated using pymatgen
data_LiI
_symmetry_space_group_name_H-M   'P 1'
_cell_length_a   4.31906331
_cell_length_b   4.31906060
_cell_length_c   11.55876223
_cell_angle_alpha   90.00284393
_cell_angle_beta   89.99905938
_cell_angle_gamma   90.00017837
_symmetry_Int_Tables_number   1
_chemical_formula_structural   LiI
_chemical_formula_sum   'Li4 I4'
_cell_volume   215.62057359
_cell_formula_units_Z   4
loop_
 _symmetry_equiv_pos_site_id
 _symmetry_equiv_pos_as_xyz
  1  'x, y, z'
loop_
 _atom_site_type_symbol
 _atom_site_label
 _atom_site_symmetry_multiplicity
 _atom_site_fract_x
 _atom_site_fract_y
 _atom_site_fract_z
 _atom_site_occupancy
  Li  Li0  1  0.99711661  0.50325910  0.84113690  1
  Li  Li1  1  0.50328316  0.00293125  0.09113422  1
  Li  Li2  1  0.00287766  0.49671170  0.34113658  1
  Li  Li3  1  0.49672132  0.99709634  0.59113487  1
  I  I4  1  0.00216487  0.49954605  0.09153849  1
  I  I5  1  0.49953801  -0.00216384  0.34153905  1
  I  I6  1  -0.00216346  0.50045997  0.59153744  1
  I  I7  1  0.50046183  0.00215944  0.84153912  1
