# generated using pymatgen
data_LiBr
_symmetry_space_group_name_H-M   'P 1'
_cell_length_a   15.44495371
_cell_length_b   4.05232636
_cell_length_c   14.62405120
_cell_angle_alpha   90.00003191
_cell_angle_beta   89.99897894
_cell_angle_gamma   90.00022423
_symmetry_Int_Tables_number   1
_chemical_formula_structural   LiBr
_chemical_formula_sum   'Li16 Br16'
_cell_volume   915.29001354
_cell_formula_units_Z   16
loop_
 _symmetry_equiv_pos_site_id
 _symmetry_equiv_pos_as_xyz
  1  'x, y, z'
loop_
 _atom_site_type_symbol
 _atom_site_label
 _atom_site_symmetry_multiplicity
 _atom_site_fract_x
 _atom_site_fract_y
 _atom_site_fract_z
 _atom_site_occupancy
  Li  Li0  1  0.88377562  0.76837529  0.49640682  1
  Li  Li1  1  0.11623106  0.23165011  0.49641064  1
  Li  Li2  1  0.36622607  0.01836668  0.74641020  1
  Li  Li3  1  0.61623155  0.23163098  0.99641158  1
  Li  Li4  1  0.86622842  0.01837173  0.24640840  1
  Li  Li5  1  0.13377013  0.48161791  0.74640754  1
  Li  Li6  1  0.38377519  0.76837070  0.99640704  1
  Li  Li7  1  0.86622895  0.51835899  0.74640804  1
  Li  Li8  1  0.13377344  0.98163839  0.24640944  1
  Li  Li9  1  0.38377549  0.26837331  0.49640954  1
  Li  Li10  1  0.61623376  0.73163812  0.49641160  1
  Li  Li11  1  0.36623042  0.51836231  0.24640838  1
  Li  Li12  1  0.63377379  0.48163053  0.24640953  1
  Li  Li13  1  0.63376957  0.98161281  0.74640989  1
  Li  Li14  1  0.88377615  0.26837599  0.99640615  1
  Li  Li15  1  0.11623106  0.73163805  0.99641029  1
  Br  Br16  1  0.86618908  0.51144541  0.15090105  1
  Br  Br17  1  0.13380968  0.48855321  0.15090244  1
  Br  Br18  1  0.38380793  0.76144981  0.40090214  1
  Br  Br19  1  0.63380956  0.48853400  0.65090327  1
  Br  Br20  1  0.88380727  0.76145440  0.90089994  1
  Br  Br21  1  0.11618637  0.73856421  0.40090362  1
  Br  Br22  1  0.36618851  0.51144913  0.65090357  1
  Br  Br23  1  0.88380727  0.26145315  0.40090105  1
  Br  Br24  1  0.11618591  0.23855378  0.90090271  1
  Br  Br25  1  0.36618905  0.01144343  0.15090149  1
  Br  Br26  1  0.63381056  0.98854770  0.15090348  1
  Br  Br27  1  0.38380657  0.26145148  0.90090165  1
  Br  Br28  1  0.61618591  0.73855024  0.90090463  1
  Br  Br29  1  0.61618677  0.23855945  0.40090402  1
  Br  Br30  1  0.86618920  0.01143984  0.65090145  1
  Br  Br31  1  0.13380969  0.98853884  0.65090160  1
