# generated using pymatgen
data_NaBr
_symmetry_space_group_name_H-M   'P 1'
_cell_length_a   5.46109206
_cell_length_b   5.45981875
_cell_length_c   6.09628146
_cell_angle_alpha   90.25878127
_cell_angle_beta   89.75237426
_cell_angle_gamma   120.34280586
_symmetry_Int_Tables_number   1
_chemical_formula_structural   NaBr
_chemical_formula_sum   'Na3 Br3'
_cell_volume   156.86900179
_cell_formula_units_Z   3
loop_
 _symmetry_equiv_pos_site_id
 _symmetry_equiv_pos_as_xyz
  1  'x, y, z'
loop_
 _atom_site_type_symbol
 _atom_site_label
 _atom_site_symmetry_multiplicity
 _atom_site_fract_x
 _atom_site_fract_y
 _atom_site_fract_z
 _atom_site_occupancy
  Na  Na0  1  0.33300977  0.33222869  0.30932294  1
  Na  Na1  1  0.66776548  0.00070130  0.97597448  1
  Na  Na2  1  0.99925628  0.66704328  0.64263153  1
  Br  Br3  1  -0.00066689  0.66669737  0.14255385  1
  Br  Br4  1  0.33331038  0.33266715  0.80922250  1
  Br  Br5  1  0.66732497  0.00066221  0.47588891  1
