# generated using pymatgen
data_LiBr
_symmetry_space_group_name_H-M   'P 1'
_cell_length_a   3.86027186
_cell_length_b   6.68652412
_cell_length_c   7.42056440
_cell_angle_alpha   90.00002352
_cell_angle_beta   120.05863346
_cell_angle_gamma   89.99998886
_symmetry_Int_Tables_number   1
_chemical_formula_structural   LiBr
_chemical_formula_sum   'Li4 Br4'
_cell_volume   165.77879525
_cell_formula_units_Z   4
loop_
 _symmetry_equiv_pos_site_id
 _symmetry_equiv_pos_as_xyz
  1  'x, y, z'
loop_
 _atom_site_type_symbol
 _atom_site_label
 _atom_site_symmetry_multiplicity
 _atom_site_fract_x
 _atom_site_fract_y
 _atom_site_fract_z
 _atom_site_occupancy
  Li  Li0  1  0.97690245  0.74803553  0.02203785  1
  Li  Li1  1  0.47690693  0.24803318  0.02203972  1
  Li  Li2  1  0.97690573  0.25196734  0.52203709  1
  Li  Li3  1  0.47690519  0.75196423  0.52203999  1
  Br  Br4  1  0.72605656  0.08325156  0.77232895  1
  Br  Br5  1  0.22605533  0.58325091  0.77232862  1
  Br  Br6  1  0.72605604  0.91674850  0.27232929  1
  Br  Br7  1  0.22605638  0.41674875  0.27232823  1
