# generated using pymatgen
data_NaI
_symmetry_space_group_name_H-M   'P 1'
_cell_length_a   7.92242167
_cell_length_b   4.62583485
_cell_length_c   8.01782652
_cell_angle_alpha   90.00427402
_cell_angle_beta   109.31958920
_cell_angle_gamma   90.00262895
_symmetry_Int_Tables_number   1
_chemical_formula_structural   NaI
_chemical_formula_sum   'Na4 I4'
_cell_volume   277.28930206
_cell_formula_units_Z   4
loop_
 _symmetry_equiv_pos_site_id
 _symmetry_equiv_pos_as_xyz
  1  'x, y, z'
loop_
 _atom_site_type_symbol
 _atom_site_label
 _atom_site_symmetry_multiplicity
 _atom_site_fract_x
 _atom_site_fract_y
 _atom_site_fract_z
 _atom_site_occupancy
  Na  Na0  1  0.43974925  0.25027893  0.13626860  1
  Na  Na1  1  0.93975113  0.75027830  0.13626982  1
  Na  Na2  1  0.43972681  0.74971015  0.63626613  1
  Na  Na3  1  0.93972506  0.24971141  0.63626521  1
  I  I4  1  0.18893300  0.25106772  0.38595749  1
  I  I5  1  0.68893249  0.75106866  0.38595650  1
  I  I6  1  0.18892446  0.74894333  0.88595105  1
  I  I7  1  0.68892484  0.24894150  0.88595196  1
