# generated using pymatgen
data_NaBr
_symmetry_space_group_name_H-M   'P 1'
_cell_length_a   4.26727180
_cell_length_b   4.26727186
_cell_length_c   12.05058534
_cell_angle_alpha   90.00002182
_cell_angle_beta   90.00000655
_cell_angle_gamma   90.00000112
_symmetry_Int_Tables_number   1
_chemical_formula_structural   NaBr
_chemical_formula_sum   'Na4 Br4'
_cell_volume   219.43644569
_cell_formula_units_Z   4
loop_
 _symmetry_equiv_pos_site_id
 _symmetry_equiv_pos_as_xyz
  1  'x, y, z'
loop_
 _atom_site_type_symbol
 _atom_site_label
 _atom_site_symmetry_multiplicity
 _atom_site_fract_x
 _atom_site_fract_y
 _atom_site_fract_z
 _atom_site_occupancy
  Na  Na0  1  0.50097328  0.00316128  0.25109319  1
  Na  Na1  1  0.00316163  0.49902665  0.50109345  1
  Na  Na2  1  0.49902632  0.99683837  0.75109433  1
  Na  Na3  1  0.99683862  0.50097365  0.00109406  1
  Br  Br4  1  0.49683092  0.00099602  0.00191969  1
  Br  Br5  1  0.00099578  0.50316914  0.25191926  1
  Br  Br6  1  0.50316943  -0.00099581  0.50191943  1
  Br  Br7  1  -0.00099598  0.49683069  0.75191985  1
