# generated using pymatgen
data_LiBr
_symmetry_space_group_name_H-M   'P 1'
_cell_length_a   11.11141324
_cell_length_b   11.11142750
_cell_length_c   8.16171596
_cell_angle_alpha   90.00192895
_cell_angle_beta   89.99803017
_cell_angle_gamma   120.00080121
_symmetry_Int_Tables_number   1
_chemical_formula_structural   LiBr
_chemical_formula_sum   'Li18 Br18'
_cell_volume   872.66540227
_cell_formula_units_Z   18
loop_
 _symmetry_equiv_pos_site_id
 _symmetry_equiv_pos_as_xyz
  1  'x, y, z'
loop_
 _atom_site_type_symbol
 _atom_site_label
 _atom_site_symmetry_multiplicity
 _atom_site_fract_x
 _atom_site_fract_y
 _atom_site_fract_z
 _atom_site_occupancy
  Li  Li0  1  0.53231902  0.46434726  0.59654781  1
  Li  Li1  1  0.53236647  0.06802721  0.09679781  1
  Li  Li2  1  0.86855034  0.13371042  0.76379008  1
  Li  Li3  1  0.26520508  0.13139650  0.76321468  1
  Li  Li4  1  0.20231639  0.40132592  0.92937286  1
  Li  Li5  1  0.53571937  0.06805360  0.59683304  1
  Li  Li6  1  0.26539127  0.13388690  0.26319984  1
  Li  Li7  1  0.86860275  0.73479366  0.26321356  1
  Li  Li8  1  -0.06803484  0.46762935  0.59679081  1
  Li  Li9  1  -0.06806092  0.46427195  0.09681633  1
  Li  Li10  1  0.86629969  0.13146269  0.26379087  1
  Li  Li11  1  0.86611431  0.73460914  0.76320450  1
  Li  Li12  1  0.59885744  0.80099016  0.92938933  1
  Li  Li13  1  0.59867932  0.79769094  0.42939953  1
  Li  Li14  1  0.53564725  0.46767529  0.09655109  1
  Li  Li15  1  0.20214029  0.80109445  0.42898645  1
  Li  Li16  1  0.19889961  0.79785514  0.92899000  1
  Li  Li17  1  0.19901355  0.40114866  0.42936504  1
  Br  Br18  1  0.12164331  0.88087048  0.18547308  1
  Br  Br19  1  0.12164900  0.24082226  0.68597242  1
  Br  Br20  1  0.45253554  0.54470301  0.35286706  1
  Br  Br21  1  0.09216473  0.54746367  0.35306537  1
  Br  Br22  1  0.78577222  0.57430098  0.51949925  1
  Br  Br23  1  0.11926774  0.24088245  0.18594462  1
  Br  Br24  1  0.09209405  0.54482059  0.85316559  1
  Br  Br25  1  0.45253112  0.90782226  0.85307809  1
  Br  Br26  1  0.75918369  0.87835669  0.18599682  1
  Br  Br27  1  0.75912498  0.88073642  0.68596883  1
  Br  Br28  1  0.45530735  0.54747098  0.85286454  1
  Br  Br29  1  0.45517620  0.90790169  0.35317835  1
  Br  Br30  1  0.42565822  0.21138858  0.51962063  1
  Br  Br31  1  0.42570350  0.21422671  0.01949432  1
  Br  Br32  1  0.11912760  0.87835435  0.68547262  1
  Br  Br33  1  0.78583647  0.21140713  0.01998525  1
  Br  Br34  1  0.78858786  0.21416142  0.51998866  1
  Br  Br35  1  0.78861003  0.57434111  0.01962019  1
