# generated using pymatgen
data_LiBr
_symmetry_space_group_name_H-M   'P 1'
_cell_length_a   3.89696234
_cell_length_b   3.89753605
_cell_length_c   9.53116928
_cell_angle_alpha   90.01900143
_cell_angle_beta   89.99449398
_cell_angle_gamma   119.99431211
_symmetry_Int_Tables_number   1
_chemical_formula_structural   LiBr
_chemical_formula_sum   'Li3 Br3'
_cell_volume   125.37704446
_cell_formula_units_Z   3
loop_
 _symmetry_equiv_pos_site_id
 _symmetry_equiv_pos_as_xyz
  1  'x, y, z'
loop_
 _atom_site_type_symbol
 _atom_site_label
 _atom_site_symmetry_multiplicity
 _atom_site_fract_x
 _atom_site_fract_y
 _atom_site_fract_z
 _atom_site_occupancy
  Li  Li0  1  0.33143289  0.33527468  0.86358396  1
  Li  Li1  1  0.66460046  0.99600134  0.19693018  1
  Li  Li2  1  0.00398822  0.66878762  0.53013810  1
  Br  Br3  1  0.99711655  0.66405697  0.02984723  1
  Br  Br4  1  0.33588746  0.33302612  0.36319681  1
  Br  Br5  1  0.66697442  0.00285327  0.69646310  1
