# generated using pymatgen
data_LiBr
_symmetry_space_group_name_H-M   'P 1'
_cell_length_a   11.40401093
_cell_length_b   12.91578721
_cell_length_c   12.00516783
_cell_angle_alpha   90.00000201
_cell_angle_beta   90.00001508
_cell_angle_gamma   90.00002532
_symmetry_Int_Tables_number   1
_chemical_formula_structural   LiBr
_chemical_formula_sum   'Li32 Br32'
_cell_volume   1768.26252080
_cell_formula_units_Z   32
loop_
 _symmetry_equiv_pos_site_id
 _symmetry_equiv_pos_as_xyz
  1  'x, y, z'
loop_
 _atom_site_type_symbol
 _atom_site_label
 _atom_site_symmetry_multiplicity
 _atom_site_fract_x
 _atom_site_fract_y
 _atom_site_fract_z
 _atom_site_occupancy
  Li  Li0  1  0.87514635  0.29225954  0.54537992  1
  Li  Li1  1  0.12485324  0.70774148  0.54538103  1
  Li  Li2  1  0.37485293  0.54225851  0.79538107  1
  Li  Li3  1  0.12485327  0.20774147  0.04538139  1
  Li  Li4  1  0.37485332  0.04225940  0.29538029  1
  Li  Li5  1  0.12485276  0.79225786  0.95461834  1
  Li  Li6  1  0.87514661  0.79225885  0.04538077  1
  Li  Li7  1  0.87514700  0.20774149  0.95461892  1
  Li  Li8  1  0.12514722  0.45774128  0.29538084  1
  Li  Li9  1  0.37485365  0.45774089  0.20461960  1
  Li  Li10  1  0.87485312  0.95774111  0.20461894  1
  Li  Li11  1  0.62514725  0.54225823  0.20461825  1
  Li  Li12  1  0.12514645  0.04225892  0.20461926  1
  Li  Li13  1  0.87514680  0.70774118  0.45461874  1
  Li  Li14  1  0.12485325  0.29225888  0.45461958  1
  Li  Li15  1  0.12514710  0.95774190  0.79538160  1
  Li  Li16  1  0.37485351  0.95774100  0.70461974  1
  Li  Li17  1  0.12514675  0.54225850  0.70461879  1
  Li  Li18  1  0.37514609  0.20774072  0.45462016  1
  Li  Li19  1  0.62485345  0.79225867  0.45461891  1
  Li  Li20  1  0.37514658  0.79225908  0.54538013  1
  Li  Li21  1  0.62485331  0.20774116  0.54538054  1
  Li  Li22  1  0.87485315  0.04225850  0.79538126  1
  Li  Li23  1  0.62514674  0.45774148  0.79538125  1
  Li  Li24  1  0.87485332  0.45774109  0.70461988  1
  Li  Li25  1  0.62514687  0.04225865  0.70461889  1
  Li  Li26  1  0.37514688  0.70774152  0.95461900  1
  Li  Li27  1  0.62485324  0.29225841  0.95461929  1
  Li  Li28  1  0.37514679  0.29225868  0.04538092  1
  Li  Li29  1  0.62485295  0.70774177  0.04538123  1
  Li  Li30  1  0.87485371  0.54225853  0.29538058  1
  Li  Li31  1  0.62514633  0.95774126  0.29538068  1
  Br  Br32  1  0.55767745  0.85880973  0.64874043  1
  Br  Br33  1  0.44232265  0.14118970  0.64874128  1
  Br  Br34  1  0.69232272  0.10880964  0.89874098  1
  Br  Br35  1  0.44232286  0.64118966  0.14874124  1
  Br  Br36  1  0.69232290  0.60880949  0.39874042  1
  Br  Br37  1  0.44232268  0.35880999  0.85125882  1
  Br  Br38  1  0.55767753  0.35880941  0.14874074  1
  Br  Br39  1  0.55767722  0.64119034  0.85125931  1
  Br  Br40  1  0.80767729  0.89119002  0.39874100  1
  Br  Br41  1  0.69232227  0.89119017  0.10125925  1
  Br  Br42  1  0.19232304  0.39119053  0.10125897  1
  Br  Br43  1  0.30767722  0.10881000  0.10125881  1
  Br  Br44  1  0.80767757  0.60881026  0.10125860  1
  Br  Br45  1  0.55767697  0.14119040  0.35125912  1
  Br  Br46  1  0.44232240  0.85880992  0.35125820  1
  Br  Br47  1  0.80767734  0.39119011  0.89874145  1
  Br  Br48  1  0.69232254  0.39119034  0.60125926  1
  Br  Br49  1  0.80767753  0.10881023  0.60125904  1
  Br  Br50  1  0.05767770  0.64119026  0.35125887  1
  Br  Br51  1  0.94232308  0.35881000  0.35125877  1
  Br  Br52  1  0.05767711  0.35880978  0.64874137  1
  Br  Br53  1  0.94232255  0.64118995  0.64874092  1
  Br  Br54  1  0.19232260  0.60880979  0.89874081  1
  Br  Br55  1  0.30767735  0.89118990  0.89874134  1
  Br  Br56  1  0.19232277  0.89119037  0.60125929  1
  Br  Br57  1  0.30767732  0.60881023  0.60125891  1
  Br  Br58  1  0.05767750  0.14119011  0.85125958  1
  Br  Br59  1  0.94232251  0.85880990  0.85125906  1
  Br  Br60  1  0.05767723  0.85880976  0.14874087  1
  Br  Br61  1  0.94232239  0.14119013  0.14874112  1
  Br  Br62  1  0.19232236  0.10880983  0.39874082  1
  Br  Br63  1  0.30767739  0.39119005  0.39874155  1
