# generated using pymatgen
data_NaI
_symmetry_space_group_name_H-M   'P 1'
_cell_length_a   9.15289495
_cell_length_b   9.16066537
_cell_length_c   4.73446176
_cell_angle_alpha   90.00007232
_cell_angle_beta   89.99971962
_cell_angle_gamma   89.92714910
_symmetry_Int_Tables_number   1
_chemical_formula_structural   NaI
_chemical_formula_sum   'Na4 I4'
_cell_volume   396.96823755
_cell_formula_units_Z   4
loop_
 _symmetry_equiv_pos_site_id
 _symmetry_equiv_pos_as_xyz
  1  'x, y, z'
loop_
 _atom_site_type_symbol
 _atom_site_label
 _atom_site_symmetry_multiplicity
 _atom_site_fract_x
 _atom_site_fract_y
 _atom_site_fract_z
 _atom_site_occupancy
  Na  Na0  1  0.59299259  0.16473243  0.13435668  1
  Na  Na1  1  0.16509067  0.40737692  0.38244305  1
  Na  Na2  1  0.40700837  0.83526908  0.63435867  1
  Na  Na3  1  0.83490946  0.59262147  0.88245351  1
  I  I4  1  0.63043898  0.82544207  0.13815058  1
  I  I5  1  0.82569123  0.36955634  0.38634703  1
  I  I6  1  0.36956071  0.17455935  0.63814876  1
  I  I7  1  0.17430797  0.63044234  0.88633925  1
