# generated using pymatgen
data_LiBr
_symmetry_space_group_name_H-M   'P 1'
_cell_length_a   11.90550536
_cell_length_b   11.90550999
_cell_length_c   7.30267749
_cell_angle_alpha   90.00125670
_cell_angle_beta   89.99878212
_cell_angle_gamma   120.00654041
_symmetry_Int_Tables_number   1
_chemical_formula_structural   LiBr
_chemical_formula_sum   'Li18 Br18'
_cell_volume   896.35483448
_cell_formula_units_Z   18
loop_
 _symmetry_equiv_pos_site_id
 _symmetry_equiv_pos_as_xyz
  1  'x, y, z'
loop_
 _atom_site_type_symbol
 _atom_site_label
 _atom_site_symmetry_multiplicity
 _atom_site_fract_x
 _atom_site_fract_y
 _atom_site_fract_z
 _atom_site_occupancy
  Li  Li0  1  0.87556403  0.50096424  0.97908870  1
  Li  Li1  1  0.87558601  0.37459950  0.47908311  1
  Li  Li2  1  0.83236921  0.79110357  0.14575574  1
  Li  Li3  1  -0.04128794  0.16763130  0.14576913  1
  Li  Li4  1  0.16570014  0.70795105  0.31243720  1
  Li  Li5  1  0.49903785  0.37462389  0.97910011  1
  Li  Li6  1  -0.04126546  0.79108108  0.64575006  1
  Li  Li7  1  0.83237056  0.04129042  0.64576812  1
  Li  Li8  1  0.62539980  0.12441326  0.97908367  1
  Li  Li9  1  0.62537809  0.50096373  0.47910120  1
  Li  Li10  1  0.20889794  0.16763152  0.64575710  1
  Li  Li11  1  0.20891887  0.04126466  0.14575209  1
  Li  Li12  1  0.29206828  0.45774812  0.31241699  1
  Li  Li13  1  0.29204335  0.83429642  0.81243393  1
  Li  Li14  1  0.49903653  0.12443495  0.47908741  1
  Li  Li15  1  0.16570080  0.45776856  0.81242434  1
  Li  Li16  1  0.54223087  0.83429715  0.31242352  1
  Li  Li17  1  0.54225331  0.70793208  0.81241849  1
  Br  Br18  1  0.12523122  0.62569369  0.97908933  1
  Br  Br19  1  0.12525489  0.49955148  0.47907012  1
  Br  Br20  1  0.70764022  0.54143580  0.14575435  1
  Br  Br21  1  0.83378139  0.29235662  0.14572606  1
  Br  Br22  1  0.04097641  0.83288495  0.31239329  1
  Br  Br23  1  0.37430957  0.49955155  0.97905982  1
  Br  Br24  1  0.83378129  0.54141203  0.64573563  1
  Br  Br25  1  0.70764356  0.16621896  0.64572589  1
  Br  Br26  1  0.50044762  0.87474497  0.97907088  1
  Br  Br27  1  0.50044788  0.62568970  0.47906029  1
  Br  Br28  1  0.45856572  0.29236000  0.64575472  1
  Br  Br29  1  0.45858853  0.16621954  0.14573588  1
  Br  Br30  1  0.16711469  0.20807871  0.31240408  1
  Br  Br31  1  0.16711459  0.95902345  0.81239377  1
  Br  Br32  1  0.37430621  0.87476793  0.47908787  1
  Br  Br33  1  0.04097333  0.20810147  0.81242328  1
  Br  Br34  1  0.79189887  0.95902765  0.31242169  1
  Br  Br35  1  0.79192177  0.83288603  0.81240301  1
