# generated using pymatgen
data_NaI
_symmetry_space_group_name_H-M   'P 1'
_cell_length_a   4.55027651
_cell_length_b   7.89757473
_cell_length_c   7.75584582
_cell_angle_alpha   90.00000821
_cell_angle_beta   90.00042735
_cell_angle_gamma   90.00000077
_symmetry_Int_Tables_number   1
_chemical_formula_structural   NaI
_chemical_formula_sum   'Na4 I4'
_cell_volume   278.71522924
_cell_formula_units_Z   4
loop_
 _symmetry_equiv_pos_site_id
 _symmetry_equiv_pos_as_xyz
  1  'x, y, z'
loop_
 _atom_site_type_symbol
 _atom_site_label
 _atom_site_symmetry_multiplicity
 _atom_site_fract_x
 _atom_site_fract_y
 _atom_site_fract_z
 _atom_site_occupancy
  Na  Na0  1  0.24976766  0.50102194  0.49973973  1
  Na  Na1  1  0.75023260  0.00102157  0.00025944  1
  Na  Na2  1  0.25023358  0.49897344  -0.00025861  1
  Na  Na3  1  0.74976696  -0.00102596  0.50025931  1
  I  I4  1  0.25053315  0.16676263  0.25000104  1
  I  I5  1  0.74946650  0.66676278  0.24999906  1
  I  I6  1  0.24946906  0.83324174  0.75000146  1
  I  I7  1  0.75053050  0.33324185  0.74999857  1
