# generated using pymatgen
data_LiBr
_symmetry_space_group_name_H-M   'P 1'
_cell_length_a   12.37627351
_cell_length_b   12.37627523
_cell_length_c   5.53842759
_cell_angle_alpha   90.00000174
_cell_angle_beta   89.99999574
_cell_angle_gamma   120.00585300
_symmetry_Int_Tables_number   1
_chemical_formula_structural   LiBr
_chemical_formula_sum   'Li12 Br12'
_cell_volume   734.63455834
_cell_formula_units_Z   12
loop_
 _symmetry_equiv_pos_site_id
 _symmetry_equiv_pos_as_xyz
  1  'x, y, z'
loop_
 _atom_site_type_symbol
 _atom_site_label
 _atom_site_symmetry_multiplicity
 _atom_site_fract_x
 _atom_site_fract_y
 _atom_site_fract_z
 _atom_site_occupancy
  Li  Li0  1  0.34178209  0.46297695  0.65291199  1
  Li  Li1  1  0.87879998  0.34177490  0.65285988  1
  Li  Li2  1  0.12121493  0.46300680  0.15288769  1
  Li  Li3  1  0.65822469  0.12120005  0.15285965  1
  Li  Li4  1  0.34177524  0.87880033  0.15286117  1
  Li  Li5  1  0.46297736  0.34178239  0.15291201  1
  Li  Li6  1  0.87878516  0.53699261  0.15288850  1
  Li  Li7  1  0.53702324  0.65821840  0.15291209  1
  Li  Li8  1  0.53699233  0.87878517  0.65288769  1
  Li  Li9  1  0.65821838  0.53702363  0.65291209  1
  Li  Li10  1  0.12119986  0.65822402  0.65286087  1
  Li  Li11  1  0.46300702  0.12121513  0.65288802  1
  Br  Br12  1  0.67460130  0.12429223  0.64694370  1
  Br  Br13  1  0.55030590  0.67460618  0.64695207  1
  Br  Br14  1  0.44973923  0.12432005  0.14694845  1
  Br  Br15  1  0.32539426  0.44969417  0.14695186  1
  Br  Br16  1  0.67460651  0.55030669  0.14695206  1
  Br  Br17  1  0.12429235  0.67460111  0.14694393  1
  Br  Br18  1  0.55026038  0.87568008  0.14694783  1
  Br  Br19  1  0.87570764  0.32539805  0.14694417  1
  Br  Br20  1  0.87568007  0.55026034  0.64694788  1
  Br  Br21  1  0.32539789  0.87570785  0.64694434  1
  Br  Br22  1  0.44969438  0.32539428  0.64695193  1
  Br  Br23  1  0.12431980  0.44973859  0.64694845  1
