# generated using pymatgen
data_KI
_symmetry_space_group_name_H-M   'P 1'
_cell_length_a   15.79493616
_cell_length_b   15.79493630
_cell_length_c   9.58017744
_cell_angle_alpha   90.00002508
_cell_angle_beta   90.00002509
_cell_angle_gamma   89.99999518
_symmetry_Int_Tables_number   1
_chemical_formula_structural   KI
_chemical_formula_sum   'K16 I16'
_cell_volume   2390.06276785
_cell_formula_units_Z   16
loop_
 _symmetry_equiv_pos_site_id
 _symmetry_equiv_pos_as_xyz
  1  'x, y, z'
loop_
 _atom_site_type_symbol
 _atom_site_label
 _atom_site_symmetry_multiplicity
 _atom_site_fract_x
 _atom_site_fract_y
 _atom_site_fract_z
 _atom_site_occupancy
  K  K0  1  0.89697271  0.74312621  0.42511654  1
  K  K1  1  0.75687390  0.39697268  0.42511696  1
  K  K2  1  0.60302726  0.24312611  0.07488301  1
  K  K3  1  0.74312608  0.10302729  0.57488305  1
  K  K4  1  0.89697273  0.25687391  0.92511698  1
  K  K5  1  0.25687380  0.89697276  0.57488367  1
  K  K6  1  0.60302727  0.75687380  0.57488346  1
  K  K7  1  0.39697274  0.24312604  0.57488326  1
  K  K8  1  0.24312621  0.39697275  0.92511656  1
  K  K9  1  0.10302721  0.74312620  0.92511635  1
  K  K10  1  0.75687395  0.60302723  0.92511677  1
  K  K11  1  0.10302727  0.25687395  0.42511675  1
  K  K12  1  0.24312621  0.60302725  0.42511633  1
  K  K13  1  0.25687377  0.10302725  0.07488342  1
  K  K14  1  0.39697280  0.75687379  0.07488363  1
  K  K15  1  0.74312607  0.89697277  0.07488322  1
  I  I16  1  0.75639931  0.40269446  0.06321022  1
  I  I17  1  0.09730563  0.25639973  0.06320998  1
  I  I18  1  0.74360027  0.90269438  0.43679002  1
  I  I19  1  0.40269436  0.24360027  0.93679002  1
  I  I20  1  0.75639972  0.59730561  0.56320999  1
  I  I21  1  0.59730554  0.75639927  0.93679006  1
  I  I22  1  0.74360068  0.09730554  0.93678978  1
  I  I23  1  0.25639965  0.90269437  0.93679030  1
  I  I24  1  0.90269449  0.25639931  0.56321023  1
  I  I25  1  0.24360074  0.40269449  0.56320995  1
  I  I26  1  0.09730560  0.74360036  0.56320971  1
  I  I27  1  0.24360036  0.59730563  0.06320970  1
  I  I28  1  0.90269447  0.74360073  0.06320994  1
  I  I29  1  0.59730552  0.24360067  0.43678978  1
  I  I30  1  0.25639927  0.09730551  0.43679005  1
  I  I31  1  0.40269440  0.75639965  0.43679030  1
