# generated using pymatgen
data_LiI
_symmetry_space_group_name_H-M   'P 1'
_cell_length_a   15.71178106
_cell_length_b   15.71182614
_cell_length_c   4.43691450
_cell_angle_alpha   90.00153069
_cell_angle_beta   89.99963275
_cell_angle_gamma   89.99980478
_symmetry_Int_Tables_number   1
_chemical_formula_structural   LiI
_chemical_formula_sum   'Li16 I16'
_cell_volume   1095.30013977
_cell_formula_units_Z   16
loop_
 _symmetry_equiv_pos_site_id
 _symmetry_equiv_pos_as_xyz
  1  'x, y, z'
loop_
 _atom_site_type_symbol
 _atom_site_label
 _atom_site_symmetry_multiplicity
 _atom_site_fract_x
 _atom_site_fract_y
 _atom_site_fract_z
 _atom_site_occupancy
  Li  Li0  1  0.58614795  0.33083259  0.21011642  1
  Li  Li1  1  0.16916575  0.08614898  0.28989540  1
  Li  Li2  1  0.58614995  0.83083359  0.03988940  1
  Li  Li3  1  0.41385143  0.66916637  0.21010774  1
  Li  Li4  1  0.83083240  0.91385136  0.28988402  1
  Li  Li5  1  0.66916830  0.08614932  0.46011562  1
  Li  Li6  1  0.33083319  0.91384938  0.46011139  1
  Li  Li7  1  0.16916854  0.58614788  0.96011943  1
  Li  Li8  1  0.83083368  0.41385102  0.96010773  1
  Li  Li9  1  0.91385158  0.16916726  0.71010925  1
  Li  Li10  1  0.33083060  0.41385198  0.78988094  1
  Li  Li11  1  0.08614840  0.83083190  0.71011406  1
  Li  Li12  1  0.66916721  0.58615009  0.78988809  1
  Li  Li13  1  0.08614774  0.33083281  0.53989308  1
  Li  Li14  1  0.91385228  0.66916733  0.53988733  1
  Li  Li15  1  0.41385104  0.16916785  0.03987941  1
  I  I16  1  0.34019270  0.08963060  0.52642957  1
  I  I17  1  0.41036834  0.84019220  0.97356861  1
  I  I18  1  0.34019228  0.58962859  0.72356637  1
  I  I19  1  0.65980838  0.91037121  0.52643248  1
  I  I20  1  0.58963004  0.15980961  0.97356661  1
  I  I21  1  0.91036946  0.84019139  -0.22356827  1
  I  I22  1  0.08963124  0.15980784  -0.22356529  1
  I  I23  1  0.41036882  0.34019063  0.27643218  1
  I  I24  1  0.58963294  0.65980859  0.27643168  1
  I  I25  1  0.15980781  0.41037097  0.02643744  1
  I  I26  1  0.08963124  0.65980841  0.47356978  1
  I  I27  1  0.84019330  0.58963117  0.02643590  1
  I  I28  1  0.91036807  0.34019186  0.47356752  1
  I  I29  1  0.84019148  0.08962944  0.22356361  1
  I  I30  1  0.15980751  0.91036803  0.22356524  1
  I  I31  1  0.65980635  0.41036973  0.72356725  1
