# generated using pymatgen
data_NaI
_symmetry_space_group_name_H-M   'P 1'
_cell_length_a   10.62044251
_cell_length_b   10.62050251
_cell_length_c   5.08009380
_cell_angle_alpha   89.99919690
_cell_angle_beta   90.00250119
_cell_angle_gamma   89.99952895
_symmetry_Int_Tables_number   1
_chemical_formula_structural   NaI
_chemical_formula_sum   'Na4 I4'
_cell_volume   573.00631544
_cell_formula_units_Z   4
loop_
 _symmetry_equiv_pos_site_id
 _symmetry_equiv_pos_as_xyz
  1  'x, y, z'
loop_
 _atom_site_type_symbol
 _atom_site_label
 _atom_site_symmetry_multiplicity
 _atom_site_fract_x
 _atom_site_fract_y
 _atom_site_fract_z
 _atom_site_occupancy
  Na  Na0  1  0.25160425  0.05956585  0.15042875  1
  Na  Na1  1  0.05956581  0.74839558  0.65044311  1
  Na  Na2  1  0.74839574  0.94043388  0.15043486  1
  Na  Na3  1  0.94043452  0.25160460  0.65041936  1
  I  I4  1  0.70934175  0.08845441  0.65037601  1
  I  I5  1  0.08845798  0.29065801  0.15038965  1
  I  I6  1  0.29065817  0.91154591  0.65039787  1
  I  I7  1  0.91154179  0.70934175  0.15038316  1
