# generated using pymatgen
data_LiBr
_symmetry_space_group_name_H-M   'P 1'
_cell_length_a   11.17048727
_cell_length_b   11.17050837
_cell_length_c   8.10513582
_cell_angle_alpha   89.99070015
_cell_angle_beta   90.00923553
_cell_angle_gamma   119.99805042
_symmetry_Int_Tables_number   1
_chemical_formula_structural   LiBr
_chemical_formula_sum   'Li18 Br18'
_cell_volume   875.87979601
_cell_formula_units_Z   18
loop_
 _symmetry_equiv_pos_site_id
 _symmetry_equiv_pos_as_xyz
  1  'x, y, z'
loop_
 _atom_site_type_symbol
 _atom_site_label
 _atom_site_symmetry_multiplicity
 _atom_site_fract_x
 _atom_site_fract_y
 _atom_site_fract_z
 _atom_site_occupancy
  Li  Li0  1  0.59801702  0.80157596  0.09655815  1
  Li  Li1  1  0.59795497  0.79646263  0.59655905  1
  Li  Li2  1  0.53149484  0.06878282  0.26363680  1
  Li  Li3  1  0.53735682  0.46844842  0.26372116  1
  Li  Li4  1  0.86492236  0.12943919  0.42992053  1
  Li  Li5  1  0.19838547  0.79637088  0.09660474  1
  Li  Li6  1  0.53727984  0.06886592  0.76366272  1
  Li  Li7  1  0.53155233  0.46264434  0.76372281  1
  Li  Li8  1  0.20353748  0.40204605  0.09655807  1
  Li  Li9  1  0.20362879  0.80161322  0.59660367  1
  Li  Li10  1  -0.06878428  0.46850301  0.76363863  1
  Li  Li11  1  -0.06886913  0.46271888  0.26366469  1
  Li  Li12  1  0.87051100  0.73552702  0.43007984  1
  Li  Li13  1  0.87056264  0.13507707  0.92992069  1
  Li  Li14  1  0.19842442  0.40198415  0.59655639  1
  Li  Li15  1  0.86489700  0.73544295  0.93007217  1
  Li  Li16  1  0.26455916  0.13510526  0.43007521  1
  Li  Li17  1  0.26447338  0.12949010  0.93008262  1
  Br  Br18  1  0.78924953  0.57391129  0.18697162  1
  Br  Br19  1  0.78923859  0.21535706  0.68683967  1
  Br  Br20  1  0.75948947  0.87749581  0.35345224  1
  Br  Br21  1  0.11795699  0.24045593  0.35335311  1
  Br  Br22  1  0.09272000  0.54858964  0.52040484  1
  Br  Br23  1  0.42614742  0.21533952  0.18688118  1
  Br  Br24  1  0.11795998  0.87746225  0.85350918  1
  Br  Br25  1  0.75954389  0.88204251  0.85335465  1
  Br  Br26  1  0.78464085  0.21075954  0.18683903  1
  Br  Br27  1  0.78466109  0.57385232  0.68687872  1
  Br  Br28  1  0.12250660  0.24051253  0.85345174  1
  Br  Br29  1  0.12253774  0.88204091  0.35351006  1
  Br  Br30  1  0.45148930  0.54406286  0.52056410  1
  Br  Br31  1  0.45140831  0.90727692  0.02040379  1
  Br  Br32  1  0.42609129  0.21075152  0.68697312  1
  Br  Br33  1  0.09261228  0.54409351  0.02050249  1
  Br  Br34  1  0.45590556  0.90738632  0.52050160  1
  Br  Br35  1  0.45593698  0.54851172  0.02056396  1
