# generated using pymatgen
data_LiBr
_symmetry_space_group_name_H-M   'P 1'
_cell_length_a   3.88700729
_cell_length_b   3.88878622
_cell_length_c   11.03990826
_cell_angle_alpha   89.99999980
_cell_angle_beta   90.00000466
_cell_angle_gamma   89.99196484
_symmetry_Int_Tables_number   1
_chemical_formula_structural   LiBr
_chemical_formula_sum   'Li4 Br4'
_cell_volume   166.87638552
_cell_formula_units_Z   4
loop_
 _symmetry_equiv_pos_site_id
 _symmetry_equiv_pos_as_xyz
  1  'x, y, z'
loop_
 _atom_site_type_symbol
 _atom_site_label
 _atom_site_symmetry_multiplicity
 _atom_site_fract_x
 _atom_site_fract_y
 _atom_site_fract_z
 _atom_site_occupancy
  Li  Li0  1  0.49933035  0.00177240  0.19089117  1
  Li  Li1  1  0.00275568  0.50092950  0.94102267  1
  Li  Li2  1  0.50066832  -0.00177312  0.69089163  1
  Li  Li3  1  -0.00275448  0.49907222  0.44102247  1
  Br  Br4  1  0.50158750  0.00015272  0.94158773  1
  Br  Br5  1  0.00055646  0.49877970  0.69156439  1
  Br  Br6  1  0.49841259  -0.00015276  0.44158749  1
  Br  Br7  1  -0.00055641  0.50121934  0.19156438  1
