# generated using pymatgen
data_LiBr
_symmetry_space_group_name_H-M   'P 1'
_cell_length_a   6.85173903
_cell_length_b   4.21481643
_cell_length_c   8.22819068
_cell_angle_alpha   90.00003970
_cell_angle_beta   122.80091071
_cell_angle_gamma   89.99998313
_symmetry_Int_Tables_number   1
_chemical_formula_structural   LiBr
_chemical_formula_sum   'Li4 Br4'
_cell_volume   199.73377376
_cell_formula_units_Z   4
loop_
 _symmetry_equiv_pos_site_id
 _symmetry_equiv_pos_as_xyz
  1  'x, y, z'
loop_
 _atom_site_type_symbol
 _atom_site_label
 _atom_site_symmetry_multiplicity
 _atom_site_fract_x
 _atom_site_fract_y
 _atom_site_fract_z
 _atom_site_occupancy
  Li  Li0  1  0.67475703  0.50011076  0.64106276  1
  Li  Li1  1  0.17477362  0.00011171  0.64106089  1
  Li  Li2  1  0.67476063  0.49988947  0.14106470  1
  Li  Li3  1  0.17477628  0.99988816  0.14106256  1
  Br  Br4  1  0.91899601  0.00031908  0.77304691  1
  Br  Br5  1  0.41899602  0.50030916  0.77306576  1
  Br  Br6  1  0.91899781  0.99968100  0.27304734  1
  Br  Br7  1  0.41899809  0.49969067  0.27306615  1
