# generated using pymatgen
data_NaI
_symmetry_space_group_name_H-M   'P 1'
_cell_length_a   6.51714948
_cell_length_b   6.53738015
_cell_length_c   6.51564647
_cell_angle_alpha   90.00142517
_cell_angle_beta   90.00038852
_cell_angle_gamma   89.99987748
_symmetry_Int_Tables_number   1
_chemical_formula_structural   NaI
_chemical_formula_sum   'Na4 I4'
_cell_volume   277.59966241
_cell_formula_units_Z   4
loop_
 _symmetry_equiv_pos_site_id
 _symmetry_equiv_pos_as_xyz
  1  'x, y, z'
loop_
 _atom_site_type_symbol
 _atom_site_label
 _atom_site_symmetry_multiplicity
 _atom_site_fract_x
 _atom_site_fract_y
 _atom_site_fract_z
 _atom_site_occupancy
  Na  Na0  1  0.00439660  0.75090903  0.36552408  1
  Na  Na1  1  0.50439580  0.24909191  0.36552331  1
  Na  Na2  1  0.99560661  0.24909306  0.86551745  1
  Na  Na3  1  0.49560660  0.75090846  0.86551848  1
  I  I4  1  0.50227775  0.74953504  0.36496874  1
  I  I5  1  0.00227833  0.25046374  0.36497110  1
  I  I6  1  0.49771896  0.25046069  0.86497524  1
  I  I7  1  -0.00228065  0.74953807  0.86497269  1
