# generated using pymatgen
data_LiBr
_symmetry_space_group_name_H-M   'P 1'
_cell_length_a   6.88614146
_cell_length_b   8.41997958
_cell_length_c   7.30765962
_cell_angle_alpha   89.99926429
_cell_angle_beta   90.00070433
_cell_angle_gamma   90.00056287
_symmetry_Int_Tables_number   1
_chemical_formula_structural   LiBr
_chemical_formula_sum   'Li8 Br8'
_cell_volume   423.70665821
_cell_formula_units_Z   8
loop_
 _symmetry_equiv_pos_site_id
 _symmetry_equiv_pos_as_xyz
  1  'x, y, z'
loop_
 _atom_site_type_symbol
 _atom_site_label
 _atom_site_symmetry_multiplicity
 _atom_site_fract_x
 _atom_site_fract_y
 _atom_site_fract_z
 _atom_site_occupancy
  Li  Li0  1  0.66108500  0.63140620  0.59011230  1
  Li  Li1  1  0.66108315  0.86859752  0.09013064  1
  Li  Li2  1  0.16109879  0.86859175  0.40987749  1
  Li  Li3  1  0.83886312  0.36858227  0.09013803  1
  Li  Li4  1  0.33890717  0.13142086  0.90986745  1
  Li  Li5  1  0.83888721  0.13141085  0.59013271  1
  Li  Li6  1  0.16111038  0.63139575  0.90986723  1
  Li  Li7  1  0.33889534  0.36858661  0.40987553  1
  Br  Br8  1  0.28819425  0.86988801  0.08490825  1
  Br  Br9  1  0.28820489  0.63010946  0.58490971  1
  Br  Br10  1  0.78819756  0.63011318  -0.08491184  1
  Br  Br11  1  0.21180117  0.13011380  0.58492039  1
  Br  Br12  1  0.71182218  0.36988776  0.41509660  1
  Br  Br13  1  0.21182960  0.36989339  0.08490837  1
  Br  Br14  1  0.78820628  0.86989387  0.41508253  1
  Br  Br15  1  0.71181389  0.13010873  -0.08491540  1
