# generated using pymatgen
data_LiBr
_symmetry_space_group_name_H-M   'P 1'
_cell_length_a   7.79492420
_cell_length_b   7.79494684
_cell_length_c   10.99423867
_cell_angle_alpha   89.99973850
_cell_angle_beta   89.99995902
_cell_angle_gamma   89.99983924
_symmetry_Int_Tables_number   1
_chemical_formula_structural   LiBr
_chemical_formula_sum   'Li16 Br16'
_cell_volume   668.02115332
_cell_formula_units_Z   16
loop_
 _symmetry_equiv_pos_site_id
 _symmetry_equiv_pos_as_xyz
  1  'x, y, z'
loop_
 _atom_site_type_symbol
 _atom_site_label
 _atom_site_symmetry_multiplicity
 _atom_site_fract_x
 _atom_site_fract_y
 _atom_site_fract_z
 _atom_site_occupancy
  Li  Li0  1  0.50000245  0.75049737  0.33849467  1
  Li  Li1  1  0.25051088  0.50000544  0.58849384  1
  Li  Li2  1  0.49999479  0.75050733  0.83849851  1
  Li  Li3  1  0.49999435  0.24950178  0.33849373  1
  Li  Li4  1  0.74949522  0.49999564  0.58849732  1
  Li  Li5  1  0.24949352  0.00000533  0.58849234  1
  Li  Li6  1  0.75050841  -0.00000499  0.58849459  1
  Li  Li7  1  0.74949907  0.50000538  0.08849632  1
  Li  Li8  1  0.25050715  0.49999369  0.08849640  1
  Li  Li9  1  -0.00000562  0.74950115  0.83849558  1
  Li  Li10  1  0.24950053  -0.00000465  0.08849586  1
  Li  Li11  1  0.00000643  0.25049512  0.83849444  1
  Li  Li12  1  0.75049910  0.00000518  0.08849534  1
  Li  Li13  1  -0.00000635  0.25050346  0.33849771  1
  Li  Li14  1  0.00000549  0.74950830  0.33849570  1
  Li  Li15  1  0.50000321  0.24948991  0.83849705  1
  Br  Br16  1  0.74940105  0.49978395  0.33824713  1
  Br  Br17  1  -0.00021721  0.74940178  0.58824835  1
  Br  Br18  1  0.25059988  0.49978250  0.83824583  1
  Br  Br19  1  0.25059822  0.50021582  0.33824836  1
  Br  Br20  1  0.00021764  0.25059824  0.58824850  1
  Br  Br21  1  0.50021645  0.24940169  0.58824619  1
  Br  Br22  1  0.49978289  0.75059635  0.58824442  1
  Br  Br23  1  0.00021551  0.74940183  0.08824663  1
  Br  Br24  1  -0.00021584  0.25059660  0.08824510  1
  Br  Br25  1  0.75059543  0.00021579  0.83824742  1
  Br  Br26  1  0.50021861  0.75059831  0.08824932  1
  Br  Br27  1  0.24940098  -0.00021803  0.83824588  1
  Br  Br28  1  0.49977979  0.24940160  0.08824875  1
  Br  Br29  1  0.75059835  -0.00021865  0.33824652  1
  Br  Br30  1  0.24940030  0.00021873  0.33824831  1
  Br  Br31  1  0.74939933  0.50021807  0.83824772  1
