# generated using pymatgen
data_NaI
_symmetry_space_group_name_H-M   'P 1'
_cell_length_a   6.54286215
_cell_length_b   6.53276042
_cell_length_c   6.51189682
_cell_angle_alpha   90.00228851
_cell_angle_beta   89.99887667
_cell_angle_gamma   90.00241818
_symmetry_Int_Tables_number   1
_chemical_formula_structural   NaI
_chemical_formula_sum   'Na4 I4'
_cell_volume   278.33768522
_cell_formula_units_Z   4
loop_
 _symmetry_equiv_pos_site_id
 _symmetry_equiv_pos_as_xyz
  1  'x, y, z'
loop_
 _atom_site_type_symbol
 _atom_site_label
 _atom_site_symmetry_multiplicity
 _atom_site_fract_x
 _atom_site_fract_y
 _atom_site_fract_z
 _atom_site_occupancy
  Na  Na0  1  0.49623751  0.75104757  0.36743026  1
  Na  Na1  1  0.99623767  0.24895270  0.36743023  1
  Na  Na2  1  0.50376103  0.24895272  0.86738823  1
  Na  Na3  1  0.00376122  0.75104718  0.86738821  1
  I  I4  1  0.50269933  0.74938444  0.86878357  1
  I  I5  1  0.00269918  0.25061530  0.86878335  1
  I  I6  1  0.49730213  0.25061542  0.36877417  1
  I  I7  1  -0.00269806  0.74938467  0.36877430  1
