# generated using pymatgen
data_KI
_symmetry_space_group_name_H-M   'P 1'
_cell_length_a   8.54497291
_cell_length_b   5.01481993
_cell_length_c   8.67823087
_cell_angle_alpha   89.99939976
_cell_angle_beta   89.99911068
_cell_angle_gamma   90.00086649
_symmetry_Int_Tables_number   1
_chemical_formula_structural   KI
_chemical_formula_sum   'K4 I4'
_cell_volume   371.87521327
_cell_formula_units_Z   4
loop_
 _symmetry_equiv_pos_site_id
 _symmetry_equiv_pos_as_xyz
  1  'x, y, z'
loop_
 _atom_site_type_symbol
 _atom_site_label
 _atom_site_symmetry_multiplicity
 _atom_site_fract_x
 _atom_site_fract_y
 _atom_site_fract_z
 _atom_site_occupancy
  K  K0  1  0.74960683  0.25313850  0.45505492  1
  K  K1  1  0.24960672  0.74686259  0.45505520  1
  K  K2  1  0.25039408  0.74686156  -0.04494421  1
  K  K3  1  0.75039447  0.25313864  -0.04494416  1
  I  I4  1  0.41505693  0.24735984  0.70523873  1
  I  I5  1  0.91505710  0.75263080  0.70523852  1
  I  I6  1  0.58494202  0.75263936  0.20523646  1
  I  I7  1  0.08494185  0.24736870  0.20523566  1
