# generated using pymatgen
data_KI
_symmetry_space_group_name_H-M   'P 1'
_cell_length_a   8.60011637
_cell_length_b   4.99757599
_cell_length_c   8.67874030
_cell_angle_alpha   89.99994834
_cell_angle_beta   89.99984181
_cell_angle_gamma   90.00008342
_symmetry_Int_Tables_number   1
_chemical_formula_structural   KI
_chemical_formula_sum   'K4 I4'
_cell_volume   373.00995903
_cell_formula_units_Z   4
loop_
 _symmetry_equiv_pos_site_id
 _symmetry_equiv_pos_as_xyz
  1  'x, y, z'
loop_
 _atom_site_type_symbol
 _atom_site_label
 _atom_site_symmetry_multiplicity
 _atom_site_fract_x
 _atom_site_fract_y
 _atom_site_fract_z
 _atom_site_occupancy
  K  K0  1  0.25110917  0.74969942  0.40699616  1
  K  K1  1  0.75110929  0.25029996  0.40699604  1
  K  K2  1  0.74889064  0.25030065  0.90699602  1
  K  K3  1  0.24889093  0.74970005  0.90699615  1
  I  I4  1  0.08404655  0.24916465  0.15677888  1
  I  I5  1  0.58404691  0.75083574  0.15677885  1
  I  I6  1  0.91595336  0.75083535  0.65677888  1
  I  I7  1  0.41595314  0.24916417  0.65677883  1
