# generated using pymatgen
data_Na2O2
_symmetry_space_group_name_H-M   'P 1'
_cell_length_a   11.11702102
_cell_length_b   11.11700664
_cell_length_c   4.76477110
_cell_angle_alpha   90.00211921
_cell_angle_beta   89.99767265
_cell_angle_gamma   120.01124218
_symmetry_Int_Tables_number   1
_chemical_formula_structural   Na2O2
_chemical_formula_sum   'Na18 O18'
_cell_volume   509.91731040
_cell_formula_units_Z   9
loop_
 _symmetry_equiv_pos_site_id
 _symmetry_equiv_pos_as_xyz
  1  'x, y, z'
loop_
 _atom_site_type_symbol
 _atom_site_label
 _atom_site_symmetry_multiplicity
 _atom_site_fract_x
 _atom_site_fract_y
 _atom_site_fract_z
 _atom_site_occupancy
  Na  Na0  1  -0.00001818  0.20693461  0.81752722  1
  Na  Na1  1  -0.00000880  0.79305480  0.31754469  1
  Na  Na2  1  0.12639691  0.66668424  0.98419349  1
  Na  Na3  1  0.54025463  0.87356665  0.98419775  1
  Na  Na4  1  0.45976184  0.12641502  0.15086993  1
  Na  Na5  1  0.79309945  0.79308119  0.81753421  1
  Na  Na6  1  0.54028302  0.66667943  0.48420896  1
  Na  Na7  1  0.12643142  0.45974778  0.48419771  1
  Na  Na8  1  0.20694658  0.00001339  0.81754415  1
  Na  Na9  1  0.20691918  0.20689902  0.31753583  1
  Na  Na10  1  0.33331283  0.87360261  0.48419316  1
  Na  Na11  1  0.33331823  0.45971609  0.98420755  1
  Na  Na12  1  0.87361687  0.33334622  0.15087259  1
  Na  Na13  1  0.87358650  0.54023696  0.65086866  1
  Na  Na14  1  0.79306617  0.00001726  0.31752654  1
  Na  Na15  1  0.45973031  0.33335118  0.65086417  1
  Na  Na16  1  0.66664816  0.54026883  0.15086305  1
  Na  Na17  1  0.66665597  0.12638320  0.65087320  1
  O  O18  1  0.00011954  0.22615121  0.31753623  1
  O  O19  1  0.00011943  0.77396729  0.81755085  1
  O  O20  1  0.10718341  0.66654661  0.48420095  1
  O  O21  1  0.55932777  0.89278191  0.48420628  1
  O  O22  1  0.44055268  0.10733930  0.65088040  1
  O  O23  1  0.77388477  0.77400562  0.31754091  1
  O  O24  1  0.55936471  0.66654674  -0.01578391  1
  O  O25  1  0.10721670  0.44067262  -0.01579602  1
  O  O26  1  0.22603398  -0.00011695  0.31755193  1
  O  O27  1  0.22599417  0.22611531  0.81754453  1
  O  O28  1  0.33345305  0.89281764  -0.01579854  1
  O  O29  1  0.33345220  0.44063407  0.48421274  1
  O  O30  1  0.89269740  0.33321421  0.65087977  1
  O  O31  1  0.89266112  0.55944868  0.15088073  1
  O  O32  1  0.77385005  -0.00012000  0.81753397  1
  O  O33  1  0.44051684  0.33321379  0.15087118  1
  O  O34  1  0.66678626  0.55948280  0.65087178  1
  O  O35  1  0.66678482  0.10730066  0.15088004  1
