# generated using pymatgen
data_LiI
_symmetry_space_group_name_H-M   'P 1'
_cell_length_a   12.49087061
_cell_length_b   12.49101456
_cell_length_c   9.06871615
_cell_angle_alpha   89.97157948
_cell_angle_beta   90.02799781
_cell_angle_gamma   119.95954933
_symmetry_Int_Tables_number   1
_chemical_formula_structural   LiI
_chemical_formula_sum   'Li18 I18'
_cell_volume   1225.86789693
_cell_formula_units_Z   18
loop_
 _symmetry_equiv_pos_site_id
 _symmetry_equiv_pos_as_xyz
  1  'x, y, z'
loop_
 _atom_site_type_symbol
 _atom_site_label
 _atom_site_symmetry_multiplicity
 _atom_site_fract_x
 _atom_site_fract_y
 _atom_site_fract_z
 _atom_site_occupancy
  Li  Li0  1  0.99601216  0.60489548  0.57756472  1
  Li  Li1  1  0.99540060  0.39098073  0.07788613  1
  Li  Li2  1  0.72840600  0.67094000  0.74401693  1
  Li  Li3  1  0.94276947  0.27129094  0.74443387  1
  Li  Li4  1  0.06197919  0.72427139  0.91101203  1
  Li  Li5  1  0.39537512  0.39085296  0.57797573  1
  Li  Li6  1  0.94261235  0.67141496  0.24434511  1
  Li  Li7  1  0.72869407  0.05716825  0.24445279  1
  Li  Li8  1  0.60901795  0.00456168  0.57788975  1
  Li  Li9  1  0.60912341  0.60460317  0.07796145  1
  Li  Li10  1  0.32903341  0.27161573  0.24402798  1
  Li  Li11  1  0.32859113  0.05741221  0.74435012  1
  Li  Li12  1  0.27548285  0.33761193  0.91094914  1
  Li  Li13  1  0.27573950  0.93802813  0.41100826  1
  Li  Li14  1  0.39513421  0.00405125  0.07756223  1
  Li  Li15  1  0.06170529  0.33725673  0.41059552  1
  Li  Li16  1  0.66272549  0.93828586  0.91060528  1
  Li  Li17  1  0.66240327  0.72450224  0.41095691  1
  I  I18  1  0.24383677  0.10844997  0.00488319  1
  I  I19  1  0.24402373  0.13549147  0.50463668  1
  I  I20  1  0.22482849  0.42282180  0.17118527  1
  I  I21  1  0.19773049  0.77502468  0.17144170  1
  I  I22  1  0.55830321  0.46906848  0.33838971  1
  I  I23  1  0.89165502  0.13557426  0.00505916  1
  I  I24  1  0.19783003  0.42264821  0.67097706  1
  I  I25  1  0.22500254  0.80229977  0.67145105  1
  I  I26  1  0.86449105  0.75595980  0.00464392  1
  I  I27  1  0.86443377  0.10833176  0.50505950  1
  I  I28  1  0.57719989  0.77516083  0.67120479  1
  I  I29  1  0.57733246  0.80215276  0.17098217  1
  I  I30  1  0.53113726  0.08924563  0.33791895  1
  I  I31  1  0.53092760  0.44168879  0.83836596  1
  I  I32  1  0.89156551  0.75616990  0.50486769  1
  I  I33  1  0.55819210  0.08945737  0.83813533  1
  I  I34  1  0.91055869  0.44182567  0.33815370  1
  I  I35  1  0.91074592  0.46888521  0.83790641  1
