# generated using pymatgen
data_LiI
_symmetry_space_group_name_H-M   'P 1'
_cell_length_a   7.80143086
_cell_length_b   7.79609069
_cell_length_c   9.39078345
_cell_angle_alpha   89.99989225
_cell_angle_beta   90.00006325
_cell_angle_gamma   120.02165561
_symmetry_Int_Tables_number   1
_chemical_formula_structural   LiI
_chemical_formula_sum   'Li6 I6'
_cell_volume   494.52561551
_cell_formula_units_Z   6
loop_
 _symmetry_equiv_pos_site_id
 _symmetry_equiv_pos_as_xyz
  1  'x, y, z'
loop_
 _atom_site_type_symbol
 _atom_site_label
 _atom_site_symmetry_multiplicity
 _atom_site_fract_x
 _atom_site_fract_y
 _atom_site_fract_z
 _atom_site_occupancy
  Li  Li0  1  0.39435479  0.78143480  0.37981797  1
  Li  Li1  1  0.61302306  0.39444248  0.21340275  1
  Li  Li2  1  0.38697685  0.60555779  0.71340267  1
  Li  Li3  1  0.78152649  0.38721219  0.54710378  1
  Li  Li4  1  0.21847376  0.61278669  0.04710394  1
  Li  Li5  1  0.60564519  0.21856553  0.87981814  1
  I  I6  1  -0.00220233  0.49998538  0.79799930  1
  I  I7  1  0.49774785  -0.00241592  0.63114743  1
  I  I8  1  0.50225025  0.00241612  0.13114736  1
  I  I9  1  0.49968932  0.50211272  0.96429067  1
  I  I10  1  0.50031211  0.49788866  0.46429069  1
  I  I11  1  0.00220267  0.50001355  0.29799908  1
