# generated using pymatgen
data_LiBr
_symmetry_space_group_name_H-M   'P 1'
_cell_length_a   12.43611762
_cell_length_b   4.47019745
_cell_length_c   4.51254974
_cell_angle_alpha   90.00000132
_cell_angle_beta   89.99991454
_cell_angle_gamma   90.00000164
_symmetry_Int_Tables_number   1
_chemical_formula_structural   LiBr
_chemical_formula_sum   'Li4 Br4'
_cell_volume   250.86121953
_cell_formula_units_Z   4
loop_
 _symmetry_equiv_pos_site_id
 _symmetry_equiv_pos_as_xyz
  1  'x, y, z'
loop_
 _atom_site_type_symbol
 _atom_site_label
 _atom_site_symmetry_multiplicity
 _atom_site_fract_x
 _atom_site_fract_y
 _atom_site_fract_z
 _atom_site_occupancy
  Li  Li0  1  -0.00124009  0.24943646  0.00276764  1
  Li  Li1  1  0.49875974  0.75056354  0.00276753  1
  Li  Li2  1  0.00124023  0.75056381  0.50276712  1
  Li  Li3  1  0.50124011  0.24943619  0.50276718  1
  Br  Br4  1  0.09695261  0.74988446  0.00277583  1
  Br  Br5  1  0.59695249  0.25011563  0.00277610  1
  Br  Br6  1  0.90304753  0.25011580  0.50277712  1
  Br  Br7  1  0.40304738  0.74988411  0.50277681  1
