# generated using pymatgen
data_LiBr
_symmetry_space_group_name_H-M   'P 1'
_cell_length_a   3.89880506
_cell_length_b   3.89879525
_cell_length_c   9.52146236
_cell_angle_alpha   90.00131368
_cell_angle_beta   89.99865631
_cell_angle_gamma   120.00094753
_symmetry_Int_Tables_number   1
_chemical_formula_structural   LiBr
_chemical_formula_sum   'Li3 Br3'
_cell_volume   125.34069247
_cell_formula_units_Z   3
loop_
 _symmetry_equiv_pos_site_id
 _symmetry_equiv_pos_as_xyz
  1  'x, y, z'
loop_
 _atom_site_type_symbol
 _atom_site_label
 _atom_site_symmetry_multiplicity
 _atom_site_fract_x
 _atom_site_fract_y
 _atom_site_fract_z
 _atom_site_occupancy
  Li  Li0  1  0.66498923  0.66412690  0.20792304  1
  Li  Li1  1  0.33588224  0.00086817  0.87458728  1
  Li  Li2  1  -0.00086070  0.33500641  0.54124860  1
  Br  Br3  1  0.33185043  -0.00152912  0.37279571  1
  Br  Br4  1  0.00153086  0.33338889  0.03946689  1
  Br  Br5  1  0.66660796  0.66813873  0.70612068  1
