# generated using pymatgen
data_KI
_symmetry_space_group_name_H-M   'P 1'
_cell_length_a   8.50347676
_cell_length_b   4.95153345
_cell_length_c   8.87999860
_cell_angle_alpha   90.00000498
_cell_angle_beta   89.99998422
_cell_angle_gamma   90.00000217
_symmetry_Int_Tables_number   1
_chemical_formula_structural   KI
_chemical_formula_sum   'K4 I4'
_cell_volume   373.89455776
_cell_formula_units_Z   4
loop_
 _symmetry_equiv_pos_site_id
 _symmetry_equiv_pos_as_xyz
  1  'x, y, z'
loop_
 _atom_site_type_symbol
 _atom_site_label
 _atom_site_symmetry_multiplicity
 _atom_site_fract_x
 _atom_site_fract_y
 _atom_site_fract_z
 _atom_site_occupancy
  K  K0  1  0.58474504  0.24781736  0.72986073  1
  K  K1  1  0.08474478  0.75218281  0.72986069  1
  K  K2  1  0.41525505  0.75218294  0.22986122  1
  K  K3  1  0.91525531  0.24781708  0.22986129  1
  I  I4  1  0.74931737  0.74782492  0.48066498  1
  I  I5  1  0.24931738  0.25217458  0.48066502  1
  I  I6  1  0.25068257  0.25217494  -0.01933508  1
  I  I7  1  0.75068250  0.74782537  -0.01933525  1
