# generated using pymatgen
data_LiBr
_symmetry_space_group_name_H-M   'P 1'
_cell_length_a   7.70203179
_cell_length_b   6.69977685
_cell_length_c   6.46023768
_cell_angle_alpha   90.00004538
_cell_angle_beta   89.99998084
_cell_angle_gamma   89.99999037
_symmetry_Int_Tables_number   1
_chemical_formula_structural   LiBr
_chemical_formula_sum   'Li8 Br8'
_cell_volume   333.36050136
_cell_formula_units_Z   8
loop_
 _symmetry_equiv_pos_site_id
 _symmetry_equiv_pos_as_xyz
  1  'x, y, z'
loop_
 _atom_site_type_symbol
 _atom_site_label
 _atom_site_symmetry_multiplicity
 _atom_site_fract_x
 _atom_site_fract_y
 _atom_site_fract_z
 _atom_site_occupancy
  Li  Li0  1  0.62432269  0.25116294  0.50309492  1
  Li  Li1  1  0.62432547  0.24882581  0.00308824  1
  Li  Li2  1  0.12432436  0.24885463  0.49690806  1
  Li  Li3  1  0.87567688  0.74884072  0.00309472  1
  Li  Li4  1  0.37567348  0.75114852  0.99690765  1
  Li  Li5  1  0.87567101  0.75116884  0.50308982  1
  Li  Li6  1  0.12432645  0.25115864  0.99691035  1
  Li  Li7  1  0.37567639  0.74883979  0.49690882  1
  Br  Br8  1  0.12477626  -0.08333625  0.24918595  1
  Br  Br9  1  0.12477610  0.58333928  0.74918413  1
  Br  Br10  1  0.62477538  0.58333647  0.75081341  1
  Br  Br11  1  0.37522558  0.08333625  0.74918597  1
  Br  Br12  1  0.87522442  0.41666346  0.25081340  1
  Br  Br13  1  0.37522556  0.41666128  0.24918440  1
  Br  Br14  1  0.62477491  -0.08333911  0.25081501  1
  Br  Br15  1  0.87522508  0.08333872  0.75081516  1
