# generated using pymatgen
data_LiBr
_symmetry_space_group_name_H-M   'P 1'
_cell_length_a   5.44855555
_cell_length_b   5.53072006
_cell_length_c   5.52439641
_cell_angle_alpha   90.00007069
_cell_angle_beta   90.00013593
_cell_angle_gamma   89.99998381
_symmetry_Int_Tables_number   1
_chemical_formula_structural   LiBr
_chemical_formula_sum   'Li4 Br4'
_cell_volume   166.47456700
_cell_formula_units_Z   4
loop_
 _symmetry_equiv_pos_site_id
 _symmetry_equiv_pos_as_xyz
  1  'x, y, z'
loop_
 _atom_site_type_symbol
 _atom_site_label
 _atom_site_symmetry_multiplicity
 _atom_site_fract_x
 _atom_site_fract_y
 _atom_site_fract_z
 _atom_site_occupancy
  Li  Li0  1  0.00017874  0.24903236  0.55073383  1
  Li  Li1  1  0.50018586  0.75096972  0.55072055  1
  Li  Li2  1  -0.00018886  0.75096945  0.05071792  1
  Li  Li3  1  0.49981813  0.24903234  0.05073283  1
  Br  Br4  1  0.50008977  0.25020659  0.55270187  1
  Br  Br5  1  0.00009229  0.74979150  0.55269913  1
  Br  Br6  1  0.49991084  0.74979144  0.05270053  1
  Br  Br7  1  -0.00008677  0.25020659  0.05270294  1
