# generated using pymatgen
data_KI
_symmetry_space_group_name_H-M   'P 1'
_cell_length_a   10.52588025
_cell_length_b   6.11866506
_cell_length_c   7.10277580
_cell_angle_alpha   89.99877257
_cell_angle_beta   90.00004640
_cell_angle_gamma   90.01546140
_symmetry_Int_Tables_number   1
_chemical_formula_structural   KI
_chemical_formula_sum   'K4 I4'
_cell_volume   457.44954044
_cell_formula_units_Z   4
loop_
 _symmetry_equiv_pos_site_id
 _symmetry_equiv_pos_as_xyz
  1  'x, y, z'
loop_
 _atom_site_type_symbol
 _atom_site_label
 _atom_site_symmetry_multiplicity
 _atom_site_fract_x
 _atom_site_fract_y
 _atom_site_fract_z
 _atom_site_occupancy
  K  K0  1  0.41664656  0.75070351  0.93256505  1
  K  K1  1  0.91664534  0.24926726  0.93256389  1
  K  K2  1  0.58335334  0.24929621  0.43256515  1
  K  K3  1  0.08335451  0.75073297  0.43256481  1
  I  I4  1  0.08254539  0.75037765  0.93285698  1
  I  I5  1  0.58254344  0.24973935  0.93285761  1
  I  I6  1  0.91745480  0.24962273  0.43285672  1
  I  I7  1  0.41745661  0.75026032  0.43285772  1
