# generated using pymatgen
data_NaI
_symmetry_space_group_name_H-M   'P 1'
_cell_length_a   7.74983620
_cell_length_b   7.82538737
_cell_length_c   4.57490446
_cell_angle_alpha   89.99958604
_cell_angle_beta   89.99791294
_cell_angle_gamma   90.00264123
_symmetry_Int_Tables_number   1
_chemical_formula_structural   NaI
_chemical_formula_sum   'Na4 I4'
_cell_volume   277.44723239
_cell_formula_units_Z   4
loop_
 _symmetry_equiv_pos_site_id
 _symmetry_equiv_pos_as_xyz
  1  'x, y, z'
loop_
 _atom_site_type_symbol
 _atom_site_label
 _atom_site_symmetry_multiplicity
 _atom_site_fract_x
 _atom_site_fract_y
 _atom_site_fract_z
 _atom_site_occupancy
  Na  Na0  1  0.75092059  0.24943046  0.49947231  1
  Na  Na1  1  0.24907810  0.74943073  0.00056057  1
  Na  Na2  1  0.74907967  0.75057101  -0.00056234  1
  Na  Na3  1  0.25092036  0.25056800  0.50052929  1
  I  I4  1  0.00053525  0.08335945  -0.00027800  1
  I  I5  1  0.99946304  0.58335516  0.50028449  1
  I  I6  1  0.49946466  0.91664734  0.49971600  1
  I  I7  1  0.50053834  0.41663784  0.00027768  1
