# generated using pymatgen
data_NaI
_symmetry_space_group_name_H-M   'P 1'
_cell_length_a   13.05542524
_cell_length_b   13.85895570
_cell_length_c   10.36263509
_cell_angle_alpha   90.00300650
_cell_angle_beta   90.00032272
_cell_angle_gamma   90.36124104
_symmetry_Int_Tables_number   1
_chemical_formula_structural   NaI
_chemical_formula_sum   'Na16 I16'
_cell_volume   1874.92155115
_cell_formula_units_Z   16
loop_
 _symmetry_equiv_pos_site_id
 _symmetry_equiv_pos_as_xyz
  1  'x, y, z'
loop_
 _atom_site_type_symbol
 _atom_site_label
 _atom_site_symmetry_multiplicity
 _atom_site_fract_x
 _atom_site_fract_y
 _atom_site_fract_z
 _atom_site_occupancy
  Na  Na0  1  0.00015726  0.64834483  0.05600227  1
  Na  Na1  1  -0.00016228  0.35165209  0.05601533  1
  Na  Na2  1  0.25002241  -0.10154113  0.30784071  1
  Na  Na3  1  0.49983780  0.35165100  0.55601666  1
  Na  Na4  1  0.75002273  -0.10154038  0.80784073  1
  Na  Na5  1  0.24998182  0.60153782  0.30785449  1
  Na  Na6  1  0.50015776  0.64834399  0.55600076  1
  Na  Na7  1  0.75002256  0.39845900  0.30784094  1
  Na  Na8  1  0.24998247  0.10153824  0.80785472  1
  Na  Na9  1  0.50015751  0.14834460  0.05600235  1
  Na  Na10  1  0.49983807  0.85165169  0.05601558  1
  Na  Na11  1  0.25002256  0.39845939  0.80784040  1
  Na  Na12  1  0.74998220  0.60153828  0.80785512  1
  Na  Na13  1  0.74998205  0.10153772  0.30785449  1
  Na  Na14  1  0.00015748  0.14834407  0.55600121  1
  Na  Na15  1  -0.00016200  0.85165114  0.55601653  1
  I  I16  1  0.43041385  0.75083165  0.30730373  1
  I  I17  1  0.56959574  0.24917463  0.30729820  1
  I  I18  1  0.81956345  -0.00103214  0.55669929  1
  I  I19  1  0.06959591  0.24917432  0.80729738  1
  I  I20  1  0.31956300  -0.00103263  0.05669885  1
  I  I21  1  0.68042732  0.50103431  0.55669364  1
  I  I22  1  0.93041401  0.75083113  0.80730441  1
  I  I23  1  0.31956337  0.49896784  0.55669947  1
  I  I24  1  0.68042674  0.00103336  0.05669447  1
  I  I25  1  0.93041389  0.25083162  0.30730384  1
  I  I26  1  0.06959552  0.74917448  0.30729810  1
  I  I27  1  0.81956287  0.49896697  0.05669818  1
  I  I28  1  0.18042660  0.50103311  0.05669522  1
  I  I29  1  0.18042745  0.00103402  0.55669389  1
  I  I30  1  0.43041402  0.25083097  0.80730451  1
  I  I31  1  0.56959582  0.74917402  0.80729763  1
