# generated using pymatgen
data_LiBr
_symmetry_space_group_name_H-M   'P 1'
_cell_length_a   7.81179563
_cell_length_b   7.81179544
_cell_length_c   10.92718584
_cell_angle_alpha   89.99999810
_cell_angle_beta   90.00000747
_cell_angle_gamma   90.00010373
_symmetry_Int_Tables_number   1
_chemical_formula_structural   LiBr
_chemical_formula_sum   'Li16 Br16'
_cell_volume   666.82222206
_cell_formula_units_Z   16
loop_
 _symmetry_equiv_pos_site_id
 _symmetry_equiv_pos_as_xyz
  1  'x, y, z'
loop_
 _atom_site_type_symbol
 _atom_site_label
 _atom_site_symmetry_multiplicity
 _atom_site_fract_x
 _atom_site_fract_y
 _atom_site_fract_z
 _atom_site_occupancy
  Li  Li0  1  0.24986614  0.50064704  0.87518295  1
  Li  Li1  1  0.50063248  0.75013657  0.12479934  1
  Li  Li2  1  0.24986519  0.49936452  0.37521121  1
  Li  Li3  1  0.00064601  0.25014059  0.62480103  1
  Li  Li4  1  0.74985638  -0.00064635  0.87518661  1
  Li  Li5  1  -0.00063895  0.74986475  0.62479568  1
  Li  Li6  1  0.74985417  0.00064010  0.37521154  1
  Li  Li7  1  0.25014567  -0.00065004  0.37519221  1
  Li  Li8  1  -0.00064763  0.25014448  0.12479399  1
  Li  Li9  1  0.25013882  0.00063269  0.87520985  1
  Li  Li10  1  0.00064363  0.74986991  0.12480632  1
  Li  Li11  1  0.75014440  0.49935742  0.87520801  1
  Li  Li12  1  0.49935353  0.24985607  0.12480820  1
  Li  Li13  1  0.49935253  0.75014133  0.62480402  1
  Li  Li14  1  0.75014263  0.50065071  0.37519215  1
  Li  Li15  1  0.50064229  0.24984531  0.62479697  1
  Br  Br16  1  0.75002454  0.49911417  0.12499380  1
  Br  Br17  1  0.49911195  0.24996446  0.87500310  1
  Br  Br18  1  0.75004065  0.50089138  0.62499577  1
  Br  Br19  1  -0.00089525  0.74996573  0.37500333  1
  Br  Br20  1  0.25003238  0.00090185  0.12499620  1
  Br  Br21  1  0.00088555  0.25003731  0.37500656  1
  Br  Br22  1  0.25004333  -0.00089715  0.62499847  1
  Br  Br23  1  0.74996703  0.00088761  0.62499440  1
  Br  Br24  1  0.00090774  0.74995050  0.87499786  1
  Br  Br25  1  0.74995727  -0.00089318  0.12499939  1
  Br  Br26  1  -0.00088441  0.25002317  0.87500455  1
  Br  Br27  1  0.24995029  0.50090387  0.12500108  1
  Br  Br28  1  0.50090658  0.75004108  0.87500172  1
  Br  Br29  1  0.50088565  0.24996474  0.37500637  1
  Br  Br30  1  0.24996951  0.49910835  0.62499557  1
  Br  Br31  1  0.49909990  0.75004102  0.37500178  1
