# generated using pymatgen
data_LiBr
_symmetry_space_group_name_H-M   'P 1'
_cell_length_a   14.00554176
_cell_length_b   14.67127578
_cell_length_c   4.05809765
_cell_angle_alpha   89.99371897
_cell_angle_beta   89.99826187
_cell_angle_gamma   89.95040471
_symmetry_Int_Tables_number   1
_chemical_formula_structural   LiBr
_chemical_formula_sum   'Li16 Br16'
_cell_volume   833.85420059
_cell_formula_units_Z   16
loop_
 _symmetry_equiv_pos_site_id
 _symmetry_equiv_pos_as_xyz
  1  'x, y, z'
loop_
 _atom_site_type_symbol
 _atom_site_label
 _atom_site_symmetry_multiplicity
 _atom_site_fract_x
 _atom_site_fract_y
 _atom_site_fract_z
 _atom_site_occupancy
  Li  Li0  1  0.91948223  0.70330905  0.08917697  1
  Li  Li1  1  0.08050150  0.29669067  0.08915418  1
  Li  Li2  1  0.33059208  -0.04681999  0.34171155  1
  Li  Li3  1  0.58050049  0.29668579  0.58913605  1
  Li  Li4  1  0.83060050  -0.04681434  0.84174062  1
  Li  Li5  1  0.16942165  0.54681558  0.34170017  1
  Li  Li6  1  0.41948252  0.70330520  0.58918688  1
  Li  Li7  1  0.83059677  0.45318657  0.34175261  1
  Li  Li8  1  0.16941968  0.04681588  0.84171653  1
  Li  Li9  1  0.41948651  0.20330536  0.08918016  1
  Li  Li10  1  0.58050425  0.79668724  0.08914179  1
  Li  Li11  1  0.33059861  0.45318286  0.84171524  1
  Li  Li12  1  0.66942036  0.54681105  0.84174395  1
  Li  Li13  1  0.66942401  0.04681204  0.34172438  1
  Li  Li14  1  0.91948123  0.20330857  0.58920408  1
  Li  Li15  1  0.08049940  0.79668773  0.58913723  1
  Br  Br16  1  0.35174948  0.05733542  0.85222991  1
  Br  Br17  1  0.64826096  0.94266934  0.85230880  1
  Br  Br18  1  0.89809109  0.30735202  0.09957365  1
  Br  Br19  1  0.14825446  0.94266812  0.35229467  1
  Br  Br20  1  0.39808788  0.30734819  0.59955545  1
  Br  Br21  1  0.60189666  0.19265091  0.09960121  1
  Br  Br22  1  0.85175167  0.05733462  0.35223448  1
  Br  Br23  1  0.39808939  0.80735022  0.09955522  1
  Br  Br24  1  0.60189648  0.69265509  0.59959986  1
  Br  Br25  1  0.85174667  0.55733322  0.85224235  1
  Br  Br26  1  0.14826160  0.44267150  0.85229304  1
  Br  Br27  1  0.89808906  0.80734866  0.59956250  1
  Br  Br28  1  0.10189636  0.19265731  0.59962430  1
  Br  Br29  1  0.10189997  0.69265481  0.09960436  1
  Br  Br30  1  0.35175822  0.55733389  0.35221440  1
  Br  Br31  1  0.64825824  0.44266745  0.35231414  1
