# generated using pymatgen
data_LiBr
_symmetry_space_group_name_H-M   'P 1'
_cell_length_a   10.22390605
_cell_length_b   10.22432616
_cell_length_c   3.70706947
_cell_angle_alpha   90.00898687
_cell_angle_beta   89.99057456
_cell_angle_gamma   120.00560602
_symmetry_Int_Tables_number   1
_chemical_formula_structural   LiBr
_chemical_formula_sum   'Li6 Br6'
_cell_volume   335.57404149
_cell_formula_units_Z   6
loop_
 _symmetry_equiv_pos_site_id
 _symmetry_equiv_pos_as_xyz
  1  'x, y, z'
loop_
 _atom_site_type_symbol
 _atom_site_label
 _atom_site_symmetry_multiplicity
 _atom_site_fract_x
 _atom_site_fract_y
 _atom_site_fract_z
 _atom_site_occupancy
  Li  Li0  1  0.48067036  0.14291903  0.37031641  1
  Li  Li1  1  0.33775917  0.48065996  0.87035055  1
  Li  Li2  1  0.66224670  0.51934612  0.37042449  1
  Li  Li3  1  0.14292765  0.66220035  0.87030338  1
  Li  Li4  1  0.85707907  0.33780477  0.37042057  1
  Li  Li5  1  0.51933532  0.85708726  0.87050673  1
  Br  Br6  1  0.30716104  0.86144376  0.36982886  1
  Br  Br7  1  0.44567817  0.30714834  0.86989596  1
  Br  Br8  1  0.55432636  0.69285609  0.37002186  1
  Br  Br9  1  0.86148695  0.55432790  0.86991724  1
  Br  Br10  1  0.13851883  0.44567727  0.36993423  1
  Br  Br11  1  0.69284401  0.13856279  0.86996876  1
