# generated using pymatgen
data_LiBr
_symmetry_space_group_name_H-M   'P 1'
_cell_length_a   7.76754183
_cell_length_b   7.77203545
_cell_length_c   12.94421251
_cell_angle_alpha   90.00007742
_cell_angle_beta   90.00004351
_cell_angle_gamma   89.99998133
_symmetry_Int_Tables_number   1
_chemical_formula_structural   LiBr
_chemical_formula_sum   'Li16 Br16'
_cell_volume   781.43706687
_cell_formula_units_Z   16
loop_
 _symmetry_equiv_pos_site_id
 _symmetry_equiv_pos_as_xyz
  1  'x, y, z'
loop_
 _atom_site_type_symbol
 _atom_site_label
 _atom_site_symmetry_multiplicity
 _atom_site_fract_x
 _atom_site_fract_y
 _atom_site_fract_z
 _atom_site_occupancy
  Li  Li0  1  0.18441298  0.18413567  0.92017527  1
  Li  Li1  1  0.68471038  0.18379386  0.16994969  1
  Li  Li2  1  0.81559672  0.18412303  0.42017867  1
  Li  Li3  1  0.81559305  0.81587138  0.92017451  1
  Li  Li4  1  0.31530313  0.81621542  0.16994958  1
  Li  Li5  1  0.81528989  0.68379337  0.16995402  1
  Li  Li6  1  0.18470058  0.31621077  0.16995189  1
  Li  Li7  1  0.31530246  0.18379092  0.66994817  1
  Li  Li8  1  0.68470662  0.81620677  0.66994959  1
  Li  Li9  1  0.31558775  0.31586403  0.42018124  1
  Li  Li10  1  0.81528743  0.31620535  0.66994975  1
  Li  Li11  1  0.68440582  0.68413160  0.42017960  1
  Li  Li12  1  0.18469747  0.68378250  0.66995165  1
  Li  Li13  1  0.31558628  0.68414166  0.92017551  1
  Li  Li14  1  0.68440476  0.31587363  0.92017540  1
  Li  Li15  1  0.18441409  0.81586142  0.42017916  1
  Br  Br16  1  0.56339870  0.75043790  0.04524277  1
  Br  Br17  1  0.25051034  0.56369468  0.29510150  1
  Br  Br18  1  0.43659451  0.75044225  0.54524286  1
  Br  Br19  1  0.43660089  0.24954485  0.04524841  1
  Br  Br20  1  0.74952144  0.43630774  0.29510168  1
  Br  Br21  1  0.24949296  0.06368638  0.29510277  1
  Br  Br22  1  0.75047090  0.93630798  0.29509856  1
  Br  Br23  1  0.74952695  0.56369519  0.79510558  1
  Br  Br24  1  0.25051149  0.43630857  0.79511006  1
  Br  Br25  1  0.93660790  0.74956519  0.54523708  1
  Br  Br26  1  0.24949282  0.93631100  0.79510695  1
  Br  Br27  1  0.06339674  0.25045176  0.54524275  1
  Br  Br28  1  0.75047190  0.06368950  0.79510768  1
  Br  Br29  1  0.93660133  0.25044975  0.04524186  1
  Br  Br30  1  0.06340154  0.74955247  0.04525012  1
  Br  Br31  1  0.56340017  0.24955341  0.54523471  1
