# generated using pymatgen
data_KBr
_symmetry_space_group_name_H-M   'P 1'
_cell_length_a   7.38442333
_cell_length_b   7.38441741
_cell_length_c   6.08907756
_cell_angle_alpha   89.99984278
_cell_angle_beta   89.99972800
_cell_angle_gamma   89.99999802
_symmetry_Int_Tables_number   1
_chemical_formula_structural   KBr
_chemical_formula_sum   'K4 Br4'
_cell_volume   332.03535477
_cell_formula_units_Z   4
loop_
 _symmetry_equiv_pos_site_id
 _symmetry_equiv_pos_as_xyz
  1  'x, y, z'
loop_
 _atom_site_type_symbol
 _atom_site_label
 _atom_site_symmetry_multiplicity
 _atom_site_fract_x
 _atom_site_fract_y
 _atom_site_fract_z
 _atom_site_occupancy
  K  K0  1  0.11256245  0.38983211  0.94383789  1
  K  K1  1  0.38983162  0.88743766  0.69383947  1
  K  K2  1  0.88743871  0.61016820  0.44383791  1
  K  K3  1  0.61016761  0.11256147  0.19383585  1
  Br  Br4  1  0.29230907  0.79198949  0.19403932  1
  Br  Br5  1  0.79198961  0.70769093  0.94403761  1
  Br  Br6  1  0.70769032  0.20801040  0.69403470  1
  Br  Br7  1  0.20801062  0.29230975  0.44403696  1
