# generated using pymatgen
data_LiBr
_symmetry_space_group_name_H-M   'P 1'
_cell_length_a   4.16449006
_cell_length_b   4.16440757
_cell_length_c   10.17098000
_cell_angle_alpha   89.99776745
_cell_angle_beta   89.99749381
_cell_angle_gamma   120.00346388
_symmetry_Int_Tables_number   1
_chemical_formula_structural   LiBr
_chemical_formula_sum   'Li3 Br3'
_cell_volume   152.75425896
_cell_formula_units_Z   3
loop_
 _symmetry_equiv_pos_site_id
 _symmetry_equiv_pos_as_xyz
  1  'x, y, z'
loop_
 _atom_site_type_symbol
 _atom_site_label
 _atom_site_symmetry_multiplicity
 _atom_site_fract_x
 _atom_site_fract_y
 _atom_site_fract_z
 _atom_site_occupancy
  Li  Li0  1  0.33455997  0.00074231  0.09478098  1
  Li  Li1  1  -0.00072103  0.33387574  0.42811747  1
  Li  Li2  1  0.66617985  0.66535187  0.76145663  1
  Br  Br3  1  0.66783593  0.66779873  0.01208140  1
  Br  Br4  1  0.33223269  0.00015202  0.34541128  1
  Br  Br5  1  -0.00008741  0.33207932  0.67874393  1
