# generated using pymatgen
data_LiBr
_symmetry_space_group_name_H-M   'P 1'
_cell_length_a   11.53487819
_cell_length_b   11.53489911
_cell_length_c   7.92667681
_cell_angle_alpha   90.00436557
_cell_angle_beta   89.99547484
_cell_angle_gamma   120.00078142
_symmetry_Int_Tables_number   1
_chemical_formula_structural   LiBr
_chemical_formula_sum   'Li18 Br18'
_cell_volume   913.36670180
_cell_formula_units_Z   18
loop_
 _symmetry_equiv_pos_site_id
 _symmetry_equiv_pos_as_xyz
  1  'x, y, z'
loop_
 _atom_site_type_symbol
 _atom_site_label
 _atom_site_symmetry_multiplicity
 _atom_site_fract_x
 _atom_site_fract_y
 _atom_site_fract_z
 _atom_site_occupancy
  Li  Li0  1  0.46350581  -0.07395921  0.37236069  1
  Li  Li1  1  0.46353177  0.53746193  0.87238236  1
  Li  Li2  1  0.40738466  0.20332841  0.53868528  1
  Li  Li3  1  0.79594981  0.59259168  0.53866999  1
  Li  Li4  1  0.74058157  0.87075790  0.70538835  1
  Li  Li5  1  0.07394496  0.53745319  0.37231493  1
  Li  Li6  1  0.79594819  0.20333973  0.03869749  1
  Li  Li7  1  0.40740708  0.20404490  0.03867506  1
  Li  Li8  1  0.46254064  0.53647117  0.37238305  1
  Li  Li9  1  0.46254548  -0.07394451  0.87230892  1
  Li  Li10  1  0.79667003  0.59261006  0.03868633  1
  Li  Li11  1  0.79665959  0.20405528  0.53869635  1
  Li  Li12  1  0.12919286  0.86979268  0.70552590  1
  Li  Li13  1  0.12924455  0.25941729  0.20538512  1
  Li  Li14  1  0.07395915  0.53649267  0.87236314  1
  Li  Li15  1  0.74062656  0.86982855  0.20538030  1
  Li  Li16  1  0.13017078  0.25937637  0.70538362  1
  Li  Li17  1  0.13021021  0.87080561  0.20552155  1
  Br  Br18  1  0.87971884  0.75859013  0.27804138  1
  Br  Br19  1  0.87968391  0.12112539  0.77796892  1
  Br  Br20  1  0.57461295  0.78692187  0.44476329  1
  Br  Br21  1  0.21229721  0.42539658  0.44478143  1
  Br  Br22  1  0.90798587  0.45432152  0.61168028  1
  Br  Br23  1  0.24144847  0.12116579  0.27804133  1
  Br  Br24  1  0.21230837  0.78692825  0.94482387  1
  Br  Br25  1  0.57460203  0.78770383  0.94478122  1
  Br  Br26  1  0.87887890  0.12031531  0.27797061  1
  Br  Br27  1  0.87883102  0.75855033  0.77803984  1
  Br  Br28  1  0.21308138  0.42539064  0.94476517  1
  Br  Br29  1  0.21307091  0.78769115  0.44482574  1
  Br  Br30  1  0.54566551  0.45365504  0.61164717  1
  Br  Br31  1  0.54568045  0.09201325  0.11167820  1
  Br  Br32  1  0.24140873  0.12028307  0.77804629  1
  Br  Br33  1  0.90796092  0.45365138  0.11168164  1
  Br  Br34  1  0.54634706  0.09204084  0.61167897  1
  Br  Br35  1  0.54634379  0.45433192  0.11164813  1
