# generated using pymatgen
data_NaI
_symmetry_space_group_name_H-M   'P 1'
_cell_length_a   7.88593194
_cell_length_b   7.75950376
_cell_length_c   4.56084570
_cell_angle_alpha   90.00005192
_cell_angle_beta   90.00000891
_cell_angle_gamma   90.00011876
_symmetry_Int_Tables_number   1
_chemical_formula_structural   NaI
_chemical_formula_sum   'Na4 I4'
_cell_volume   279.08233764
_cell_formula_units_Z   4
loop_
 _symmetry_equiv_pos_site_id
 _symmetry_equiv_pos_as_xyz
  1  'x, y, z'
loop_
 _atom_site_type_symbol
 _atom_site_label
 _atom_site_symmetry_multiplicity
 _atom_site_fract_x
 _atom_site_fract_y
 _atom_site_fract_z
 _atom_site_occupancy
  Na  Na0  1  0.50038996  0.00049030  0.25165022  1
  Na  Na1  1  0.49960973  0.50049023  0.24834958  1
  Na  Na2  1  -0.00038954  -0.00049077  0.75165259  1
  Na  Na3  1  0.00038942  0.49950886  0.74835063  1
  I  I4  1  0.33338493  0.25019822  0.75087687  1
  I  I5  1  0.66661567  0.75019798  0.74911999  1
  I  I6  1  0.16661519  0.74980249  0.25087795  1
  I  I7  1  0.83338463  0.24980269  0.24912216  1
