# generated using pymatgen
data_LiI
_symmetry_space_group_name_H-M   'P 1'
_cell_length_a   10.47089862
_cell_length_b   6.94515923
_cell_length_c   7.02155362
_cell_angle_alpha   89.99997618
_cell_angle_beta   89.99980054
_cell_angle_gamma   89.99996875
_symmetry_Int_Tables_number   1
_chemical_formula_structural   LiI
_chemical_formula_sum   'Li8 I8'
_cell_volume   510.62183082
_cell_formula_units_Z   8
loop_
 _symmetry_equiv_pos_site_id
 _symmetry_equiv_pos_as_xyz
  1  'x, y, z'
loop_
 _atom_site_type_symbol
 _atom_site_label
 _atom_site_symmetry_multiplicity
 _atom_site_fract_x
 _atom_site_fract_y
 _atom_site_fract_z
 _atom_site_occupancy
  Li  Li0  1  0.36924410  0.33967797  0.12569823  1
  Li  Li1  1  0.86924216  0.66032031  0.62570157  1
  Li  Li2  1  0.13075796  0.83967776  0.12570126  1
  Li  Li3  1  0.63075672  0.66032130  0.12570310  1
  Li  Li4  1  0.86924258  0.16032090  0.12569948  1
  Li  Li5  1  0.13075765  0.33968030  0.62570085  1
  Li  Li6  1  0.63075769  0.16032027  0.62570020  1
  Li  Li7  1  0.36924183  0.83968111  0.62570045  1
  I  I8  1  0.37567160  0.23393150  0.51162721  1
  I  I9  1  0.87567204  0.76606878  0.01163000  1
  I  I10  1  0.12432678  0.73393097  0.51162903  1
  I  I11  1  0.62432772  0.76606848  0.51162974  1
  I  I12  1  0.87567252  0.26606968  0.51162729  1
  I  I13  1  0.12432815  0.23393038  0.01162856  1
  I  I14  1  0.62432850  0.26607028  0.01162687  1
  I  I15  1  0.37567198  0.73393002  0.01162759  1
