# generated using pymatgen
data_KBr
_symmetry_space_group_name_H-M   'P 1'
_cell_length_a   5.59232024
_cell_length_b   6.63926537
_cell_length_c   9.96604340
_cell_angle_alpha   90.00008202
_cell_angle_beta   89.99774290
_cell_angle_gamma   89.99999416
_symmetry_Int_Tables_number   1
_chemical_formula_structural   KBr
_chemical_formula_sum   'K4 Br4'
_cell_volume   370.02820995
_cell_formula_units_Z   4
loop_
 _symmetry_equiv_pos_site_id
 _symmetry_equiv_pos_as_xyz
  1  'x, y, z'
loop_
 _atom_site_type_symbol
 _atom_site_label
 _atom_site_symmetry_multiplicity
 _atom_site_fract_x
 _atom_site_fract_y
 _atom_site_fract_z
 _atom_site_occupancy
  K  K0  1  0.52329915  0.49860364  0.58595156  1
  K  K1  1  0.47670106  -0.00139649  0.91404781  1
  K  K2  1  -0.02329649  0.50139638  0.08595067  1
  K  K3  1  0.02329678  0.00139624  0.41405009  1
  Br  Br4  1  0.97666217  0.00104675  0.08565776  1
  Br  Br5  1  0.02333761  0.50104587  0.41434081  1
  Br  Br6  1  0.52333602  -0.00104575  0.58565612  1
  Br  Br7  1  0.47666369  0.49895336  0.91434518  1
