# generated using pymatgen
data_KI
_symmetry_space_group_name_H-M   'P 1'
_cell_length_a   5.10414845
_cell_length_b   10.07337205
_cell_length_c   8.82759359
_cell_angle_alpha   89.99935666
_cell_angle_beta   54.62852434
_cell_angle_gamma   89.99877255
_symmetry_Int_Tables_number   1
_chemical_formula_structural   KI
_chemical_formula_sum   'K4 I4'
_cell_volume   370.10058953
_cell_formula_units_Z   4
loop_
 _symmetry_equiv_pos_site_id
 _symmetry_equiv_pos_as_xyz
  1  'x, y, z'
loop_
 _atom_site_type_symbol
 _atom_site_label
 _atom_site_symmetry_multiplicity
 _atom_site_fract_x
 _atom_site_fract_y
 _atom_site_fract_z
 _atom_site_occupancy
  K  K0  1  0.50059240  0.37427230  0.75030821  1
  K  K1  1  0.49941723  0.87427240  0.74969248  1
  K  K2  1  0.49940713  0.62572796  0.24969172  1
  K  K3  1  0.50058328  0.12572783  0.25030759  1
  I  I4  1  -0.00024772  0.87521400  0.24984771  1
  I  I5  1  0.00023841  0.37521378  0.25015300  1
  I  I6  1  0.00024768  0.12478577  0.75015229  1
  I  I7  1  -0.00023841  0.62478597  0.74984700  1
