# generated using pymatgen
data_LiI
_symmetry_space_group_name_H-M   'P 1'
_cell_length_a   12.26477544
_cell_length_b   9.21478274
_cell_length_c   9.77164605
_cell_angle_alpha   89.99999152
_cell_angle_beta   89.99997296
_cell_angle_gamma   90.00001062
_symmetry_Int_Tables_number   1
_chemical_formula_structural   LiI
_chemical_formula_sum   'Li16 I16'
_cell_volume   1104.36447667
_cell_formula_units_Z   16
loop_
 _symmetry_equiv_pos_site_id
 _symmetry_equiv_pos_as_xyz
  1  'x, y, z'
loop_
 _atom_site_type_symbol
 _atom_site_label
 _atom_site_symmetry_multiplicity
 _atom_site_fract_x
 _atom_site_fract_y
 _atom_site_fract_z
 _atom_site_occupancy
  Li  Li0  1  0.39227232  0.74991447  0.47271066  1
  Li  Li1  1  0.60772805  0.25008601  0.47271112  1
  Li  Li2  1  0.85772838  -0.00008602  0.72270995  1
  Li  Li3  1  0.10772696  0.25008571  -0.02728843  1
  Li  Li4  1  0.35772758  -0.00008583  0.22270984  1
  Li  Li5  1  0.64227196  0.50008520  0.72271182  1
  Li  Li6  1  0.89227213  0.74991361  -0.02729019  1
  Li  Li7  1  0.35772704  0.49991307  0.72270953  1
  Li  Li8  1  0.64227212  0.00008647  0.22271139  1
  Li  Li9  1  0.89227257  0.24991374  0.47271027  1
  Li  Li10  1  0.10772771  0.75008754  0.47271059  1
  Li  Li11  1  0.85772728  0.49991450  0.22271031  1
  Li  Li12  1  0.14227265  0.50008682  0.22271109  1
  Li  Li13  1  0.14227275  0.00008693  0.72271148  1
  Li  Li14  1  0.39227289  0.24991327  -0.02729007  1
  Li  Li15  1  0.60772752  0.75008583  -0.02728884  1
  I  I16  1  0.74997292  0.48400477  0.47254336  1
  I  I17  1  0.25002689  0.51599573  0.47254230  1
  I  I18  1  0.50002704  0.73400412  0.72254290  1
  I  I19  1  0.75002735  0.51599438  0.97254279  1
  I  I20  1  0.00002722  0.73400574  0.22254221  1
  I  I21  1  -0.00002689  0.76599518  0.72254244  1
  I  I22  1  0.24997279  0.48400422  0.97254254  1
  I  I23  1  0.00002740  0.23400554  0.72254287  1
  I  I24  1  -0.00002741  0.26599541  0.22254259  1
  I  I25  1  0.24997288  -0.01599386  0.47254268  1
  I  I26  1  0.75002770  0.01599434  0.47254234  1
  I  I27  1  0.50002760  0.23400542  0.22254246  1
  I  I28  1  0.49997259  0.76599492  0.22254294  1
  I  I29  1  0.49997228  0.26599381  0.72254201  1
  I  I30  1  0.74997235  -0.01599535  0.97254227  1
  I  I31  1  0.25002738  0.01599431  0.97254278  1
