# generated using pymatgen
data_LiBr
_symmetry_space_group_name_H-M   'P 1'
_cell_length_a   11.20029234
_cell_length_b   11.19419800
_cell_length_c   11.62481374
_cell_angle_alpha   90.02695529
_cell_angle_beta   90.01228444
_cell_angle_gamma   120.01761707
_symmetry_Int_Tables_number   1
_chemical_formula_structural   LiBr
_chemical_formula_sum   'Li18 Br18'
_cell_volume   1262.00695167
_cell_formula_units_Z   18
loop_
 _symmetry_equiv_pos_site_id
 _symmetry_equiv_pos_as_xyz
  1  'x, y, z'
loop_
 _atom_site_type_symbol
 _atom_site_label
 _atom_site_symmetry_multiplicity
 _atom_site_fract_x
 _atom_site_fract_y
 _atom_site_fract_z
 _atom_site_occupancy
  Li  Li0  1  0.43293404  0.12111620  0.23899428  1
  Li  Li1  1  -0.02178775  0.76576697  0.09362743  1
  Li  Li2  1  0.56707198  -0.12110679  0.76100798  1
  Li  Li3  1  0.68841707  0.56748960  0.23934521  1
  Li  Li4  1  0.78809685  0.02185014  0.09372555  1
  Li  Li5  1  0.12134238  0.68834158  0.76072361  1
  Li  Li6  1  0.54549386  0.64492280  0.57300304  1
  Li  Li7  1  -0.12134374  0.31165858  0.23927370  1
  Li  Li8  1  0.31158411  0.43251670  0.76065344  1
  Li  Li9  1  0.45450725  0.35507404  0.42700193  1
  Li  Li10  1  0.21190071  -0.02185171  0.90627666  1
  Li  Li11  1  0.35510918  0.90092043  0.57304361  1
  Li  Li12  1  0.64488996  0.09907201  0.42695007  1
  Li  Li13  1  0.02178586  0.23423423  0.90636735  1
  Li  Li14  1  0.09939583  0.45429734  0.57273109  1
  Li  Li15  1  0.90060069  0.54569565  0.42727362  1
  Li  Li16  1  0.23386269  0.21223667  0.09394278  1
  Li  Li17  1  0.76614187  0.78777072  0.90605909  1
  Br  Br18  1  0.02447022  0.23815052  0.12687728  1
  Br  Br19  1  0.45326048  0.35761012  0.20640499  1
  Br  Br20  1  -0.02447138  0.76184451  0.87312517  1
  Br  Br21  1  0.21330301  -0.02440026  0.12677920  1
  Br  Br22  1  -0.09578950  0.54682204  0.20664783  1
  Br  Br23  1  0.23748276  0.21331410  0.87342097  1
  Br  Br24  1  0.42910747  0.11977779  0.45955202  1
  Br  Br25  1  0.76251151  0.78668263  0.12657512  1
  Br  Br26  1  0.78670092  0.02440365  0.87322052  1
  Br  Br27  1  0.57089432  -0.11977947  0.54045145  1
  Br  Br28  1  0.09578431  0.45317999  0.79335849  1
  Br  Br29  1  -0.11989408  0.30914850  0.45980008  1
  Br  Br30  1  0.11989611  0.69084469  0.54019684  1
  Br  Br31  1  0.54674388  0.64239614  0.79359459  1
  Br  Br32  1  0.69084742  0.57134346  0.45986156  1
  Br  Br33  1  0.30915294  0.42865721  0.54013813  1
  Br  Br34  1  0.64242201  0.09532715  0.20631316  1
  Br  Br35  1  0.35757476  -0.09532792  0.79368215  1
