# generated using pymatgen
data_LiI
_symmetry_space_group_name_H-M   'P 1'
_cell_length_a   12.57657270
_cell_length_b   12.57602734
_cell_length_c   4.34551203
_cell_angle_alpha   89.99175121
_cell_angle_beta   90.00637388
_cell_angle_gamma   120.00246641
_symmetry_Int_Tables_number   1
_chemical_formula_structural   LiI
_chemical_formula_sum   'Li9 I9'
_cell_volume   595.20499572
_cell_formula_units_Z   9
loop_
 _symmetry_equiv_pos_site_id
 _symmetry_equiv_pos_as_xyz
  1  'x, y, z'
loop_
 _atom_site_type_symbol
 _atom_site_label
 _atom_site_symmetry_multiplicity
 _atom_site_fract_x
 _atom_site_fract_y
 _atom_site_fract_z
 _atom_site_occupancy
  Li  Li0  1  0.40413776  0.20202935  0.89631783  1
  Li  Li1  1  0.13133459  0.86887312  0.56333957  1
  Li  Li2  1  0.73756470  0.86865886  0.56320623  1
  Li  Li3  1  0.46450503  0.53549537  0.22996298  1
  Li  Li4  1  0.07099946  0.53548851  0.22991471  1
  Li  Li5  1  0.46451747  -0.07099496  0.22991824  1
  Li  Li6  1  0.79796816  0.20212305  0.89638577  1
  Li  Li7  1  0.13110870  0.26242537  0.56320007  1
  Li  Li8  1  0.79788763  0.59585296  0.89627133  1
  I  I9  1  0.57297273  0.78637915  0.08305381  1
  I  I10  1  0.54693464  0.45330491  0.74995812  1
  I  I11  1  0.90636462  0.45306645  0.74989295  1
  I  I12  1  0.88026523  0.11990973  0.41636908  1
  I  I13  1  0.23961755  0.11972375  0.41628288  1
  I  I14  1  0.88009922  0.76038640  0.41619427  1
  I  I15  1  0.21362983  0.78660327  0.08320783  1
  I  I16  1  0.54669672  0.09364793  0.74984702  1
  I  I17  1  0.21339596  0.42702678  0.08299229  1
