# generated using pymatgen
data_LiBr
_symmetry_space_group_name_H-M   'P 1'
_cell_length_a   5.44739650
_cell_length_b   7.97177080
_cell_length_c   4.46490349
_cell_angle_alpha   89.99991380
_cell_angle_beta   90.00000096
_cell_angle_gamma   90.00000068
_symmetry_Int_Tables_number   1
_chemical_formula_structural   LiBr
_chemical_formula_sum   'Li4 Br4'
_cell_volume   193.89020373
_cell_formula_units_Z   4
loop_
 _symmetry_equiv_pos_site_id
 _symmetry_equiv_pos_as_xyz
  1  'x, y, z'
loop_
 _atom_site_type_symbol
 _atom_site_label
 _atom_site_symmetry_multiplicity
 _atom_site_fract_x
 _atom_site_fract_y
 _atom_site_fract_z
 _atom_site_occupancy
  Li  Li0  1  0.75010357  0.08247548  0.83243305  1
  Li  Li1  1  0.25010321  0.41752445  0.83243312  1
  Li  Li2  1  0.24989738  0.91752145  0.33241741  1
  Li  Li3  1  0.74989733  0.58247857  0.33241616  1
  Br  Br4  1  0.24971583  0.08759204  0.83254243  1
  Br  Br5  1  0.74971580  0.41240791  0.83254227  1
  Br  Br6  1  0.75028343  0.91240721  0.33255041  1
  Br  Br7  1  0.25028343  0.58759288  0.33254938  1
