# generated using pymatgen
data_LiBr
_symmetry_space_group_name_H-M   'P 1'
_cell_length_a   14.61608396
_cell_length_b   14.61608674
_cell_length_c   14.61608736
_cell_angle_alpha   90.00000827
_cell_angle_beta   90.00002348
_cell_angle_gamma   90.00002253
_symmetry_Int_Tables_number   1
_chemical_formula_structural   LiBr
_chemical_formula_sum   'Li48 Br48'
_cell_volume   3122.43402657
_cell_formula_units_Z   48
loop_
 _symmetry_equiv_pos_site_id
 _symmetry_equiv_pos_as_xyz
  1  'x, y, z'
loop_
 _atom_site_type_symbol
 _atom_site_label
 _atom_site_symmetry_multiplicity
 _atom_site_fract_x
 _atom_site_fract_y
 _atom_site_fract_z
 _atom_site_occupancy
  Li  Li0  1  0.61340486  0.86333973  0.62532953  1
  Li  Li1  1  0.11333920  0.86340499  0.87532934  1
  Li  Li2  1  0.11340519  0.63666056  0.37467099  1
  Li  Li3  1  0.88666057  0.63659489  0.87532935  1
  Li  Li4  1  0.88659505  0.86333962  0.37467083  1
  Li  Li5  1  0.62467090  0.11333891  0.13659529  1
  Li  Li6  1  0.62467071  0.88666061  0.36340498  1
  Li  Li7  1  0.38666037  0.86340517  0.12467086  1
  Li  Li8  1  0.11340471  0.36333929  0.12532931  1
  Li  Li9  1  0.61333872  0.36340494  0.37532881  1
  Li  Li10  1  0.62532926  0.38659524  0.63666089  1
  Li  Li11  1  0.63659496  0.87532921  0.88666095  1
  Li  Li12  1  0.37467059  0.11340484  0.63666078  1
  Li  Li13  1  0.36340472  0.37532908  0.61333864  1
  Li  Li14  1  0.63659493  0.12467112  0.61333884  1
  Li  Li15  1  0.12532945  0.11340476  0.36333914  1
  Li  Li16  1  0.36340504  0.62467090  0.88666104  1
  Li  Li17  1  0.86340507  0.12467089  0.38666084  1
  Li  Li18  1  0.37467062  0.88659509  0.86333936  1
  Li  Li19  1  0.11333932  0.13659505  0.62467067  1
  Li  Li20  1  0.86333911  0.62532945  0.61340469  1
  Li  Li21  1  0.13666095  0.12532939  0.88659523  1
  Li  Li22  1  0.37532957  0.61333928  0.36340477  1
  Li  Li23  1  0.36333964  0.87467053  0.38659541  1
  Li  Li24  1  0.87532917  0.88666097  0.63659510  1
  Li  Li25  1  0.13666059  0.87467071  0.61340481  1
  Li  Li26  1  0.87467034  0.38659520  0.36333916  1
  Li  Li27  1  0.61333937  0.63659504  0.12467086  1
  Li  Li28  1  0.88659518  0.13666035  0.12532934  1
  Li  Li29  1  0.61340487  0.13666066  0.87467062  1
  Li  Li30  1  0.38666054  0.13659477  0.37532909  1
  Li  Li31  1  0.38659524  0.36333926  0.87467050  1
  Li  Li32  1  0.12467066  0.61333912  0.63659551  1
  Li  Li33  1  0.12467077  0.38666090  0.86340490  1
  Li  Li34  1  0.63666097  0.62532930  0.38659544  1
  Li  Li35  1  0.87532947  0.11333903  0.86340480  1
  Li  Li36  1  0.38659508  0.63666050  0.62532931  1
  Li  Li37  1  0.88666077  0.36340504  0.62467072  1
  Li  Li38  1  0.86333935  0.37467034  0.88659542  1
  Li  Li39  1  0.37532916  0.38666088  0.13659483  1
  Li  Li40  1  0.63666096  0.37467074  0.11340439  1
  Li  Li41  1  0.36333943  0.12532951  0.11340470  1
  Li  Li42  1  0.13659508  0.62467079  0.11333934  1
  Li  Li43  1  0.87467083  0.61340483  0.13666091  1
  Li  Li44  1  0.86340499  0.87532910  0.11333926  1
  Li  Li45  1  0.12532910  0.88659520  0.13666108  1
  Li  Li46  1  0.13659500  0.37532940  0.38666077  1
  Li  Li47  1  0.62532935  0.61340472  0.86333905  1
  Br  Br48  1  0.23355597  0.48312053  0.12519539  1
  Br  Br49  1  0.73312022  0.48355607  0.37519551  1
  Br  Br50  1  0.73355615  0.01687941  0.87480439  1
  Br  Br51  1  0.26687950  0.01644343  0.37519557  1
  Br  Br52  1  0.26644406  0.48312058  0.87480450  1
  Br  Br53  1  0.12480455  0.73312017  0.51644418  1
  Br  Br54  1  0.12480450  0.26687969  0.98355614  1
  Br  Br55  1  0.76687957  0.48355620  0.62480448  1
  Br  Br56  1  0.73355612  -0.01687905  0.62519535  1
  Br  Br57  1  0.23312049  0.98355614  0.87519543  1
  Br  Br58  1  0.12519550  0.76644408  0.01687969  1
  Br  Br59  1  0.01644369  0.37519556  0.26687960  1
  Br  Br60  1  0.87480456  0.73355599  0.01687965  1
  Br  Br61  1  0.98355607  0.87519541  0.23312072  1
  Br  Br62  1  0.01644404  0.62480458  0.23312073  1
  Br  Br63  1  0.62519556  0.73355582  -0.01687957  1
  Br  Br64  1  0.98355622  0.12480446  0.26687956  1
  Br  Br65  1  0.48355604  0.62480458  0.76687959  1
  Br  Br66  1  0.87480452  0.26644408  0.48312040  1
  Br  Br67  1  0.73312073  0.51644380  0.12480455  1
  Br  Br68  1  0.48312050  0.12519554  0.23355614  1
  Br  Br69  1  0.51687986  0.62519564  0.26644401  1
  Br  Br70  1  0.87519560  0.23312005  0.98355624  1
  Br  Br71  1  -0.01687972  0.37480455  0.76644398  1
  Br  Br72  1  0.37519555  0.26687960  0.01644368  1
  Br  Br73  1  0.51687962  0.37480468  0.23355551  1
  Br  Br74  1  0.37480461  0.76644410  -0.01687927  1
  Br  Br75  1  0.23312036  0.01644380  0.62480445  1
  Br  Br76  1  0.26644370  0.51687930  0.62519547  1
  Br  Br77  1  0.23355648  0.51687938  0.37480437  1
  Br  Br78  1  0.76687946  0.51644348  0.87519555  1
  Br  Br79  1  0.76644384  -0.01687929  0.37480446  1
  Br  Br80  1  0.62480459  0.23312010  0.01644409  1
  Br  Br81  1  0.62480448  0.76687967  0.48355635  1
  Br  Br82  1  0.01687978  0.12519563  0.76644386  1
  Br  Br83  1  0.37519549  0.73312030  0.48355614  1
  Br  Br84  1  0.76644395  0.01687918  0.12519539  1
  Br  Br85  1  0.26687925  0.98355646  0.12480456  1
  Br  Br86  1  0.48312037  0.87480464  0.26644387  1
  Br  Br87  1  0.87519550  0.76687983  0.51644384  1
  Br  Br88  1  0.01687951  0.87480461  0.73355610  1
  Br  Br89  1  -0.01687977  0.62519552  0.73355611  1
  Br  Br90  1  0.51644389  0.12480456  0.73312023  1
  Br  Br91  1  0.37480458  0.23355585  0.51687918  1
  Br  Br92  1  0.48355592  0.37519554  0.73312006  1
  Br  Br93  1  0.62519542  0.26644426  0.51687924  1
  Br  Br94  1  0.51644376  0.87519554  0.76687972  1
  Br  Br95  1  0.12519553  0.23355605  0.48312032  1
