# generated using pymatgen
data_LiI
_symmetry_space_group_name_H-M   'P 1'
_cell_length_a   7.84634919
_cell_length_b   7.84649406
_cell_length_c   9.22533817
_cell_angle_alpha   90.00001351
_cell_angle_beta   89.99999981
_cell_angle_gamma   120.00486789
_symmetry_Int_Tables_number   1
_chemical_formula_structural   LiI
_chemical_formula_sum   'Li6 I6'
_cell_volume   491.85252327
_cell_formula_units_Z   6
loop_
 _symmetry_equiv_pos_site_id
 _symmetry_equiv_pos_as_xyz
  1  'x, y, z'
loop_
 _atom_site_type_symbol
 _atom_site_label
 _atom_site_symmetry_multiplicity
 _atom_site_fract_x
 _atom_site_fract_y
 _atom_site_fract_z
 _atom_site_occupancy
  Li  Li0  1  0.61679514  0.22140487  0.92143856  1
  Li  Li1  1  0.39541417  0.61680973  0.08810297  1
  Li  Li2  1  0.60458565  0.38318975  0.58810297  1
  Li  Li3  1  0.22140770  0.60459412  0.75477430  1
  Li  Li4  1  0.77859215  0.39540595  0.25477427  1
  Li  Li5  1  0.38320495  0.77859473  0.42143837  1
  I  I6  1  0.49906800  0.99602065  0.67337554  1
  I  I7  1  0.50302389  0.49904643  0.84003635  1
  I  I8  1  0.49697564  0.50095298  0.34003632  1
  I  I9  1  0.99601932  0.49693828  0.50670263  1
  I  I10  1  0.00398082  0.50306315  0.00670277  1
  I  I11  1  0.50093259  0.00397935  0.17337572  1
