# generated using pymatgen
data_NaI
_symmetry_space_group_name_H-M   'P 1'
_cell_length_a   4.66375914
_cell_length_b   9.18133681
_cell_length_c   8.00229254
_cell_angle_alpha   90.00543947
_cell_angle_beta   125.45802227
_cell_angle_gamma   89.99290023
_symmetry_Int_Tables_number   1
_chemical_formula_structural   NaI
_chemical_formula_sum   'Na4 I4'
_cell_volume   279.10606281
_cell_formula_units_Z   4
loop_
 _symmetry_equiv_pos_site_id
 _symmetry_equiv_pos_as_xyz
  1  'x, y, z'
loop_
 _atom_site_type_symbol
 _atom_site_label
 _atom_site_symmetry_multiplicity
 _atom_site_fract_x
 _atom_site_fract_y
 _atom_site_fract_z
 _atom_site_occupancy
  Na  Na0  1  0.50131240  0.62646035  0.24996182  1
  Na  Na1  1  0.49870123  0.12646816  0.25004256  1
  Na  Na2  1  0.49868709  0.37353961  0.75003801  1
  Na  Na3  1  0.50129925  0.87353191  0.74995756  1
  I  I4  1  0.00014330  0.87592621  0.25012950  1
  I  I5  1  -0.00013769  0.37592181  0.24986961  1
  I  I6  1  -0.00014319  0.12407372  0.74987048  1
  I  I7  1  0.00013760  0.62407823  0.75013046  1
