# generated using pymatgen
data_LiBr
_symmetry_space_group_name_H-M   'P 1'
_cell_length_a   4.24199073
_cell_length_b   7.29969674
_cell_length_c   7.73856877
_cell_angle_alpha   89.99998294
_cell_angle_beta   122.01992466
_cell_angle_gamma   90.00000501
_symmetry_Int_Tables_number   1
_chemical_formula_structural   LiBr
_chemical_formula_sum   'Li4 Br4'
_cell_volume   203.17078344
_cell_formula_units_Z   4
loop_
 _symmetry_equiv_pos_site_id
 _symmetry_equiv_pos_as_xyz
  1  'x, y, z'
loop_
 _atom_site_type_symbol
 _atom_site_label
 _atom_site_symmetry_multiplicity
 _atom_site_fract_x
 _atom_site_fract_y
 _atom_site_fract_z
 _atom_site_occupancy
  Li  Li0  1  0.24321680  0.08693453  0.67427649  1
  Li  Li1  1  0.74321685  0.58693503  0.67427687  1
  Li  Li2  1  0.24321677  0.91306511  0.17427726  1
  Li  Li3  1  0.74321649  0.41306541  0.17427661  1
  Br  Br4  1  0.85326109  0.07928273  0.28723651  1
  Br  Br5  1  0.35326177  0.57928156  0.28723677  1
  Br  Br6  1  0.85326230  -0.07928161  0.78723702  1
  Br  Br7  1  0.35326142  0.42071725  0.78723658  1
