# generated using pymatgen
data_LiBr
_symmetry_space_group_name_H-M   'P 1'
_cell_length_a   14.70637703
_cell_length_b   14.47708793
_cell_length_c   4.03266466
_cell_angle_alpha   89.99973706
_cell_angle_beta   90.00029624
_cell_angle_gamma   90.00008589
_symmetry_Int_Tables_number   1
_chemical_formula_structural   LiBr
_chemical_formula_sum   'Li16 Br16'
_cell_volume   858.57654045
_cell_formula_units_Z   16
loop_
 _symmetry_equiv_pos_site_id
 _symmetry_equiv_pos_as_xyz
  1  'x, y, z'
loop_
 _atom_site_type_symbol
 _atom_site_label
 _atom_site_symmetry_multiplicity
 _atom_site_fract_x
 _atom_site_fract_y
 _atom_site_fract_z
 _atom_site_occupancy
  Li  Li0  1  0.45236209  0.17135841  0.72197985  1
  Li  Li1  1  0.54763965  0.82863891  0.72198147  1
  Li  Li2  1  0.79763844  0.42135948  0.97198297  1
  Li  Li3  1  0.04763795  0.82864003  0.22197362  1
  Li  Li4  1  0.29763847  0.42136133  0.47198831  1
  Li  Li5  1  0.70236103  0.07864160  0.97198967  1
  Li  Li6  1  0.95236198  0.17135796  0.22198550  1
  Li  Li7  1  0.29763792  0.92135864  0.97197564  1
  Li  Li8  1  0.70236197  0.57864035  0.47197926  1
  Li  Li9  1  0.95236149  0.67135860  0.72197467  1
  Li  Li10  1  0.04763896  0.32864019  0.72198353  1
  Li  Li11  1  0.79763791  0.92136138  0.47199162  1
  Li  Li12  1  0.20236184  0.07864196  0.47197372  1
  Li  Li13  1  0.20236149  0.57864148  0.97198332  1
  Li  Li14  1  0.45236178  0.67135927  0.22198194  1
  Li  Li15  1  0.54763779  0.32864157  0.22197950  1
  Br  Br16  1  0.30813609  0.59860146  0.46055827  1
  Br  Br17  1  0.69186320  0.40140075  0.46055249  1
  Br  Br18  1  0.94186298  0.84859810  0.71054371  1
  Br  Br19  1  0.19186384  0.40140126  -0.03944257  1
  Br  Br20  1  0.44186386  0.84859875  0.21054899  1
  Br  Br21  1  0.55813688  0.65139874  0.71055654  1
  Br  Br22  1  0.80813685  0.59859977  -0.03944913  1
  Br  Br23  1  0.44186298  0.34859860  0.71054865  1
  Br  Br24  1  0.55813654  0.15140083  0.21055408  1
  Br  Br25  1  0.80813581  0.09860128  0.46056315  1
  Br  Br26  1  0.19186229  0.90140165  0.46054528  1
  Br  Br27  1  0.94186347  0.34859816  0.21055161  1
  Br  Br28  1  0.05813630  0.65139976  0.21054859  1
  Br  Br29  1  0.05813731  0.15139973  0.71055943  1
  Br  Br30  1  0.30813726  0.09859898  -0.03945343  1
  Br  Br31  1  0.69186359  0.90140104  -0.03944097  1
