# generated using pymatgen
data_KI
_symmetry_space_group_name_H-M   'P 1'
_cell_length_a   8.71499181
_cell_length_b   4.38854068
_cell_length_c   8.70586394
_cell_angle_alpha   89.99998971
_cell_angle_beta   90.00000092
_cell_angle_gamma   89.99999977
_symmetry_Int_Tables_number   1
_chemical_formula_structural   KI
_chemical_formula_sum   'K4 I4'
_cell_volume   332.96530887
_cell_formula_units_Z   4
loop_
 _symmetry_equiv_pos_site_id
 _symmetry_equiv_pos_as_xyz
  1  'x, y, z'
loop_
 _atom_site_type_symbol
 _atom_site_label
 _atom_site_symmetry_multiplicity
 _atom_site_fract_x
 _atom_site_fract_y
 _atom_site_fract_z
 _atom_site_occupancy
  K  K0  1  0.74894630  0.52798674  0.15802821  1
  K  K1  1  0.24894626  0.47201321  0.15802796  1
  K  K2  1  0.25105374  0.47201321  0.65802797  1
  K  K3  1  0.75105370  0.52798686  0.65802823  1
  I  I4  1  -0.01599578  0.05591902  0.90810721  1
  I  I5  1  0.48400423  0.94408099  0.90810718  1
  I  I6  1  0.01599578  0.94408099  0.40810713  1
  I  I7  1  0.51599577  0.05591899  0.40810722  1
