# generated using pymatgen
data_LiI
_symmetry_space_group_name_H-M   'P 1'
_cell_length_a   6.01277383
_cell_length_b   6.01255667
_cell_length_c   6.02938302
_cell_angle_alpha   90.00275035
_cell_angle_beta   90.00139613
_cell_angle_gamma   90.00043487
_symmetry_Int_Tables_number   1
_chemical_formula_structural   LiI
_chemical_formula_sum   'Li4 I4'
_cell_volume   217.97511906
_cell_formula_units_Z   4
loop_
 _symmetry_equiv_pos_site_id
 _symmetry_equiv_pos_as_xyz
  1  'x, y, z'
loop_
 _atom_site_type_symbol
 _atom_site_label
 _atom_site_symmetry_multiplicity
 _atom_site_fract_x
 _atom_site_fract_y
 _atom_site_fract_z
 _atom_site_occupancy
  Li  Li0  1  0.25097818  0.25276074  0.96202956  1
  Li  Li1  1  0.25275594  0.74902348  0.46202788  1
  Li  Li2  1  0.74902189  0.74723906  0.96203053  1
  Li  Li3  1  0.74724400  0.25097649  0.46202921  1
  I  I4  1  0.24964810  0.24969948  0.46017429  1
  I  I5  1  0.24970119  0.75035416  0.96017409  1
  I  I6  1  0.75035187  0.75030069  0.46017334  1
  I  I7  1  0.75029882  0.24964590  0.96017407  1
