# generated using pymatgen
data_LiBr
_symmetry_space_group_name_H-M   'P 1'
_cell_length_a   3.89210437
_cell_length_b   3.89204781
_cell_length_c   11.01817193
_cell_angle_alpha   89.99938140
_cell_angle_beta   90.00034737
_cell_angle_gamma   89.99986108
_symmetry_Int_Tables_number   1
_chemical_formula_structural   LiBr
_chemical_formula_sum   'Li4 Br4'
_cell_volume   166.90609211
_cell_formula_units_Z   4
loop_
 _symmetry_equiv_pos_site_id
 _symmetry_equiv_pos_as_xyz
  1  'x, y, z'
loop_
 _atom_site_type_symbol
 _atom_site_label
 _atom_site_symmetry_multiplicity
 _atom_site_fract_x
 _atom_site_fract_y
 _atom_site_fract_z
 _atom_site_occupancy
  Li  Li0  1  0.50022930  -0.00069018  0.02394937  1
  Li  Li1  1  -0.00069585  0.49977409  0.77395225  1
  Li  Li2  1  0.49978434  0.00069392  0.52395220  1
  Li  Li3  1  0.00068947  0.50021229  0.27395389  1
  Br  Br4  1  0.49859299  -0.00091161  0.27458529  1
  Br  Br5  1  -0.00091504  0.50140807  0.02458541  1
  Br  Br6  1  0.50140277  0.00091564  0.77458841  1
  Br  Br7  1  0.00091201  0.49859778  0.52458591  1
