# generated using pymatgen
data_LiBr
_symmetry_space_group_name_H-M   'P 1'
_cell_length_a   5.50170334
_cell_length_b   7.76540201
_cell_length_c   3.90005255
_cell_angle_alpha   90.00016327
_cell_angle_beta   90.00000095
_cell_angle_gamma   90.00002398
_symmetry_Int_Tables_number   1
_chemical_formula_structural   LiBr
_chemical_formula_sum   'Li4 Br4'
_cell_volume   166.62170430
_cell_formula_units_Z   4
loop_
 _symmetry_equiv_pos_site_id
 _symmetry_equiv_pos_as_xyz
  1  'x, y, z'
loop_
 _atom_site_type_symbol
 _atom_site_label
 _atom_site_symmetry_multiplicity
 _atom_site_fract_x
 _atom_site_fract_y
 _atom_site_fract_z
 _atom_site_occupancy
  Li  Li0  1  0.50023699  0.12500661  0.75033963  1
  Li  Li1  1  0.49976371  0.62500758  0.74967533  1
  Li  Li2  1  -0.00023687  0.87499383  0.25032492  1
  Li  Li3  1  0.00023681  0.37499236  0.24966092  1
  Br  Br4  1  0.50004521  0.37521145  0.25085445  1
  Br  Br5  1  0.49995442  0.87521255  0.24914739  1
  Br  Br6  1  -0.00004550  0.62478795  0.75085074  1
  Br  Br7  1  0.00004524  0.12478767  0.74914661  1
