# generated using pymatgen
data_LiBr
_symmetry_space_group_name_H-M   'P 1'
_cell_length_a   9.83141865
_cell_length_b   14.84038846
_cell_length_c   6.28239826
_cell_angle_alpha   90.00003522
_cell_angle_beta   90.00000176
_cell_angle_gamma   90.00001275
_symmetry_Int_Tables_number   1
_chemical_formula_structural   LiBr
_chemical_formula_sum   'Li16 Br16'
_cell_volume   916.61492258
_cell_formula_units_Z   16
loop_
 _symmetry_equiv_pos_site_id
 _symmetry_equiv_pos_as_xyz
  1  'x, y, z'
loop_
 _atom_site_type_symbol
 _atom_site_label
 _atom_site_symmetry_multiplicity
 _atom_site_fract_x
 _atom_site_fract_y
 _atom_site_fract_z
 _atom_site_occupancy
  Li  Li0  1  0.87697468  0.18109750  0.83125059  1
  Li  Li1  1  0.12302550  0.31890285  0.83124919  1
  Li  Li2  1  0.12302525  0.18109779  0.33125205  1
  Li  Li3  1  0.62302566  0.81890198  0.33125100  1
  Li  Li4  1  0.62302523  0.68109786  0.83125244  1
  Li  Li5  1  0.62302530  0.18109799  0.16874847  1
  Li  Li6  1  0.37697447  0.68109771  0.33125080  1
  Li  Li7  1  0.37697447  0.31890212  0.16874945  1
  Li  Li8  1  0.37697475  0.81890226  0.83125246  1
  Li  Li9  1  0.62302571  0.31890243  0.66875138  1
  Li  Li10  1  0.37697453  0.18109800  0.66874806  1
  Li  Li11  1  0.87697441  0.81890187  0.66874880  1
  Li  Li12  1  0.12302546  0.68109780  0.66874918  1
  Li  Li13  1  0.87697455  0.31890257  0.33124857  1
  Li  Li14  1  0.12302544  0.81890233  0.16874981  1
  Li  Li15  1  0.87697456  0.68109752  0.16874994  1
  Br  Br16  1  0.12468912  0.85100983  0.76585183  1
  Br  Br17  1  0.87531096  0.64898993  0.76585234  1
  Br  Br18  1  0.87531107  0.85100978  0.26585235  1
  Br  Br19  1  0.37531096  0.14899015  0.26585155  1
  Br  Br20  1  0.37531128  0.35101017  0.76585248  1
  Br  Br21  1  0.37531102  0.85100997  0.23414887  1
  Br  Br22  1  0.62468897  0.35100994  0.26585212  1
  Br  Br23  1  0.62468882  0.64898979  0.23414791  1
  Br  Br24  1  0.62468899  0.14899001  0.76585114  1
  Br  Br25  1  0.37531097  0.64899000  0.73414822  1
  Br  Br26  1  0.62468884  0.85100980  0.73414775  1
  Br  Br27  1  0.12468905  0.14899022  0.73414753  1
  Br  Br28  1  0.87531102  0.35100988  0.73414744  1
  Br  Br29  1  0.12468916  0.64898991  0.26585147  1
  Br  Br30  1  0.87531096  0.14899005  0.23414777  1
  Br  Br31  1  0.12468884  0.35101000  0.23414704  1
