# generated using pymatgen
data_LiBr
_symmetry_space_group_name_H-M   'P 1'
_cell_length_a   10.46088731
_cell_length_b   4.62229722
_cell_length_c   4.48016278
_cell_angle_alpha   90.00004887
_cell_angle_beta   90.00530746
_cell_angle_gamma   89.99776107
_symmetry_Int_Tables_number   1
_chemical_formula_structural   LiBr
_chemical_formula_sum   'Li4 Br4'
_cell_volume   216.63078963
_cell_formula_units_Z   4
loop_
 _symmetry_equiv_pos_site_id
 _symmetry_equiv_pos_as_xyz
  1  'x, y, z'
loop_
 _atom_site_type_symbol
 _atom_site_label
 _atom_site_symmetry_multiplicity
 _atom_site_fract_x
 _atom_site_fract_y
 _atom_site_fract_z
 _atom_site_occupancy
  Li  Li0  1  0.24297431  0.24475819  0.46208098  1
  Li  Li1  1  0.74297525  0.25524891  0.46209958  1
  Li  Li2  1  0.75702500  0.75524156  0.96208446  1
  Li  Li3  1  0.25702505  0.74475113  0.96206576  1
  Br  Br4  1  0.36116076  0.24437582  0.96283147  1
  Br  Br5  1  0.86116071  0.25563864  0.96285003  1
  Br  Br6  1  0.63883938  0.75562433  0.46288298  1
  Br  Br7  1  0.13883954  0.74436142  0.46286457  1
