# generated using pymatgen
data_LiI
_symmetry_space_group_name_H-M   'P 1'
_cell_length_a   7.34080624
_cell_length_b   4.23696016
_cell_length_c   6.96134426
_cell_angle_alpha   89.99933108
_cell_angle_beta   89.99996804
_cell_angle_gamma   90.00040790
_symmetry_Int_Tables_number   1
_chemical_formula_structural   LiI
_chemical_formula_sum   'Li4 I4'
_cell_volume   216.51662737
_cell_formula_units_Z   4
loop_
 _symmetry_equiv_pos_site_id
 _symmetry_equiv_pos_as_xyz
  1  'x, y, z'
loop_
 _atom_site_type_symbol
 _atom_site_label
 _atom_site_symmetry_multiplicity
 _atom_site_fract_x
 _atom_site_fract_y
 _atom_site_fract_z
 _atom_site_occupancy
  Li  Li0  1  0.75003073  0.74653658  0.84373221  1
  Li  Li1  1  0.25003076  0.25346300  0.84373150  1
  Li  Li2  1  0.24996970  0.25346869  0.34373138  1
  Li  Li3  1  0.74996978  0.74653079  0.34373213  1
  I  I4  1  0.58406302  0.24888846  0.09328154  1
  I  I5  1  0.08406295  0.75111239  0.09328129  1
  I  I6  1  0.41593650  0.75111191  0.59328222  1
  I  I7  1  0.91593656  0.24888817  0.59328248  1
