# generated using pymatgen
data_LiBr
_symmetry_space_group_name_H-M   'P 1'
_cell_length_a   3.87042289
_cell_length_b   6.62933935
_cell_length_c   7.53015207
_cell_angle_alpha   89.99998945
_cell_angle_beta   120.85459296
_cell_angle_gamma   90.00000602
_symmetry_Int_Tables_number   1
_chemical_formula_structural   LiBr
_chemical_formula_sum   'Li4 Br4'
_cell_volume   165.86637736
_cell_formula_units_Z   4
loop_
 _symmetry_equiv_pos_site_id
 _symmetry_equiv_pos_as_xyz
  1  'x, y, z'
loop_
 _atom_site_type_symbol
 _atom_site_label
 _atom_site_symmetry_multiplicity
 _atom_site_fract_x
 _atom_site_fract_y
 _atom_site_fract_z
 _atom_site_occupancy
  Li  Li0  1  0.90633999  0.74899224  0.41468861  1
  Li  Li1  1  0.40634006  0.24899225  0.41468860  1
  Li  Li2  1  0.90634373  0.25100778  0.91468714  1
  Li  Li3  1  0.40634375  0.75100773  0.91468709  1
  Br  Br4  1  0.15641675  0.91688630  0.16541196  1
  Br  Br5  1  0.65641666  0.41688636  0.16541196  1
  Br  Br6  1  0.15641708  0.08311370  0.66541185  1
  Br  Br7  1  0.65641698  0.58311364  0.66541185  1
