# generated using pymatgen
data_NaI
_symmetry_space_group_name_H-M   'P 1'
_cell_length_a   6.52415188
_cell_length_b   6.53381909
_cell_length_c   6.52838122
_cell_angle_alpha   89.99999568
_cell_angle_beta   90.00003873
_cell_angle_gamma   90.00001197
_symmetry_Int_Tables_number   1
_chemical_formula_structural   NaI
_chemical_formula_sum   'Na4 I4'
_cell_volume   278.28940652
_cell_formula_units_Z   4
loop_
 _symmetry_equiv_pos_site_id
 _symmetry_equiv_pos_as_xyz
  1  'x, y, z'
loop_
 _atom_site_type_symbol
 _atom_site_label
 _atom_site_symmetry_multiplicity
 _atom_site_fract_x
 _atom_site_fract_y
 _atom_site_fract_z
 _atom_site_occupancy
  Na  Na0  1  0.24981222  0.75012272  0.25030023  1
  Na  Na1  1  0.24981221  0.24987811  0.74971149  1
  Na  Na2  1  0.75018758  0.24987864  0.25028547  1
  Na  Na3  1  0.75018781  0.75012163  0.74970268  1
  I  I4  1  0.74999216  0.74998123  0.24960096  1
  I  I5  1  0.74999217  0.25001807  0.75038759  1
  I  I6  1  0.25000792  0.25001869  0.24960974  1
  I  I7  1  0.25000792  0.74998091  0.75040185  1
