# generated using pymatgen
data_NaI
_symmetry_space_group_name_H-M   'P 1'
_cell_length_a   13.03329722
_cell_length_b   6.51680029
_cell_length_c   6.54837780
_cell_angle_alpha   89.99792570
_cell_angle_beta   90.00347496
_cell_angle_gamma   89.99968174
_symmetry_Int_Tables_number   1
_chemical_formula_structural   NaI
_chemical_formula_sum   'Na8 I8'
_cell_volume   556.18905451
_cell_formula_units_Z   8
loop_
 _symmetry_equiv_pos_site_id
 _symmetry_equiv_pos_as_xyz
  1  'x, y, z'
loop_
 _atom_site_type_symbol
 _atom_site_label
 _atom_site_symmetry_multiplicity
 _atom_site_fract_x
 _atom_site_fract_y
 _atom_site_fract_z
 _atom_site_occupancy
  Na  Na0  1  0.37487519  0.00044039  0.25356794  1
  Na  Na1  1  0.37487540  0.49956522  0.75356695  1
  Na  Na2  1  0.87487505  0.49955908  0.74640331  1
  Na  Na3  1  0.12512522  -0.00043579  0.75359570  1
  Na  Na4  1  0.62512458  0.50043510  0.24643298  1
  Na  Na5  1  0.12512496  0.50044058  0.25359662  1
  Na  Na6  1  0.87487479  0.00043561  0.24640428  1
  Na  Na7  1  0.62512478  -0.00044021  0.74643201  1
  I  I8  1  0.37526300  0.50003670  0.25225568  1
  I  I9  1  0.37526297  -0.00003332  0.75225553  1
  I  I10  1  0.87526331  -0.00003738  0.74773261  1
  I  I11  1  0.12473681  0.49996603  0.75226737  1
  I  I12  1  0.62473703  0.00003347  0.24774435  1
  I  I13  1  0.12473666  0.00003720  0.25226757  1
  I  I14  1  0.87526319  0.50003385  0.24773279  1
  I  I15  1  0.62473705  0.49996347  0.74774430  1
