# generated using pymatgen
data_NaI
_symmetry_space_group_name_H-M   'P 1'
_cell_length_a   7.90243727
_cell_length_b   7.74830523
_cell_length_c   9.11685647
_cell_angle_alpha   89.99998952
_cell_angle_beta   89.99999819
_cell_angle_gamma   90.00000032
_symmetry_Int_Tables_number   1
_chemical_formula_structural   NaI
_chemical_formula_sum   'Na8 I8'
_cell_volume   558.22964441
_cell_formula_units_Z   8
loop_
 _symmetry_equiv_pos_site_id
 _symmetry_equiv_pos_as_xyz
  1  'x, y, z'
loop_
 _atom_site_type_symbol
 _atom_site_label
 _atom_site_symmetry_multiplicity
 _atom_site_fract_x
 _atom_site_fract_y
 _atom_site_fract_z
 _atom_site_occupancy
  Na  Na0  1  0.24978541  0.50054483  0.11287824  1
  Na  Na1  1  0.24978477  0.99945602  0.61287825  1
  Na  Na2  1  0.74978538  0.99945513  0.88712183  1
  Na  Na3  1  0.25021522  0.49945603  0.61287817  1
  Na  Na4  1  0.75021521  0.00054401  0.38712176  1
  Na  Na5  1  0.25021459  0.00054484  0.11287817  1
  Na  Na6  1  0.74978478  0.50054399  0.38712182  1
  Na  Na7  1  0.75021461  0.49945513  0.88712176  1
  I  I8  1  0.58219293  0.25094353  0.13102657  1
  I  I9  1  0.58219299  0.24905558  0.63102651  1
  I  I10  1  0.08219295  0.24905652  0.86897339  1
  I  I11  1  0.91780703  0.74905571  0.63102649  1
  I  I12  1  0.41780702  0.75094443  0.36897349  1
  I  I13  1  0.91780705  0.75094346  0.13102661  1
  I  I14  1  0.08219298  0.25094431  0.36897352  1
  I  I15  1  0.41780707  0.74905646  0.86897342  1
