# generated using pymatgen
data_LiBr
_symmetry_space_group_name_H-M   'P 1'
_cell_length_a   11.90782046
_cell_length_b   11.90782079
_cell_length_c   7.32113450
_cell_angle_alpha   90.00308834
_cell_angle_beta   89.99685023
_cell_angle_gamma   120.00826038
_symmetry_Int_Tables_number   1
_chemical_formula_structural   LiBr
_chemical_formula_sum   'Li18 Br18'
_cell_volume   898.95391638
_cell_formula_units_Z   18
loop_
 _symmetry_equiv_pos_site_id
 _symmetry_equiv_pos_as_xyz
  1  'x, y, z'
loop_
 _atom_site_type_symbol
 _atom_site_label
 _atom_site_symmetry_multiplicity
 _atom_site_fract_x
 _atom_site_fract_y
 _atom_site_fract_z
 _atom_site_occupancy
  Li  Li0  1  0.04222207  0.83389313  0.76237442  1
  Li  Li1  1  0.04223081  0.20832252  0.26239753  1
  Li  Li2  1  0.49943433  0.62444306  0.92904324  1
  Li  Li3  1  0.12500957  0.50057571  0.92906743  1
  Li  Li4  1  0.83275322  0.54165087  0.09573666  1
  Li  Li5  1  0.16608846  0.20832113  0.76240070  1
  Li  Li6  1  0.12501398  0.62443714  0.42906402  1
  Li  Li7  1  0.49943289  0.87499370  0.42906067  1
  Li  Li8  1  0.79167639  -0.04222980  0.76239468  1
  Li  Li9  1  0.79167746  0.83390359  0.26239599  1
  Li  Li10  1  0.37555726  0.50056444  0.42904632  1
  Li  Li11  1  0.37556525  0.87499047  0.92906647  1
  Li  Li12  1  0.45834244  0.29110312  0.09573042  1
  Li  Li13  1  0.45834411  0.16724227  0.59572915  1
  Li  Li14  1  0.16610341  -0.04222184  0.26237607  1
  Li  Li15  1  0.83277234  0.29111285  0.59570990  1
  Li  Li16  1  0.70888602  0.16722078  0.09570136  1
  Li  Li17  1  0.70890089  0.54165728  0.59573138  1
  Br  Br18  1  0.83356489  0.04185831  0.09428968  1
  Br  Br19  1  0.83355601  0.79169933  0.59426797  1
  Br  Br20  1  0.29147441  0.83310621  0.26095961  1
  Br  Br21  1  0.54162516  0.70852361  0.26093449  1
  Br  Br22  1  0.62481303  0.12504482  0.42759727  1
  Br  Br23  1  0.95814324  0.79170449  0.09426767  1
  Br  Br24  1  0.54163422  0.83311170  0.76093534  1
  Br  Br25  1  0.29147489  0.45837472  0.76093643  1
  Br  Br26  1  0.20829973  0.16644173  0.09426970  1
  Br  Br27  1  0.20828986  0.04185711  0.59426952  1
  Br  Br28  1  0.16689752  0.70852813  0.76095857  1
  Br  Br29  1  0.16689303  0.45836692  0.26093534  1
  Br  Br30  1  0.87496997  0.49977742  0.42760594  1
  Br  Br31  1  0.87495760  0.37518743  0.92760532  1
  Br  Br32  1  0.95813698  0.16643621  0.59428978  1
  Br  Br33  1  0.62480372  0.49977002  0.92762251  1
  Br  Br34  1  0.50023197  0.37519750  0.42762258  1
  Br  Br35  1  0.50022288  0.12503389  0.92759991  1
