# generated using pymatgen
data_NaBr
_symmetry_space_group_name_H-M   'P 1'
_cell_length_a   7.26560652
_cell_length_b   4.20005178
_cell_length_c   7.22597346
_cell_angle_alpha   90.00000581
_cell_angle_beta   89.99999979
_cell_angle_gamma   89.99999889
_symmetry_Int_Tables_number   1
_chemical_formula_structural   NaBr
_chemical_formula_sum   'Na4 Br4'
_cell_volume   220.50725426
_cell_formula_units_Z   4
loop_
 _symmetry_equiv_pos_site_id
 _symmetry_equiv_pos_as_xyz
  1  'x, y, z'
loop_
 _atom_site_type_symbol
 _atom_site_label
 _atom_site_symmetry_multiplicity
 _atom_site_fract_x
 _atom_site_fract_y
 _atom_site_fract_z
 _atom_site_occupancy
  Na  Na0  1  0.25008966  0.75143985  0.12167798  1
  Na  Na1  1  0.75008947  0.24856013  0.12168137  1
  Na  Na2  1  0.74991054  0.24856011  0.62168136  1
  Na  Na3  1  0.24991034  0.75143984  0.62167795  1
  Br  Br4  1  0.41658371  0.25169421  0.37152347  1
  Br  Br5  1  0.91658371  0.74830580  0.37152388  1
  Br  Br6  1  0.58341628  0.74830580  0.87152388  1
  Br  Br7  1  0.08341628  0.25169425  0.87152348  1
