# generated using pymatgen
data_LiI
_symmetry_space_group_name_H-M   'P 1'
_cell_length_a   5.50279131
_cell_length_b   6.68893486
_cell_length_c   6.39358910
_cell_angle_alpha   89.99999935
_cell_angle_beta   89.99999634
_cell_angle_gamma   90.00000005
_symmetry_Int_Tables_number   1
_chemical_formula_structural   LiI
_chemical_formula_sum   'Li4 I4'
_cell_volume   235.33402975
_cell_formula_units_Z   4
loop_
 _symmetry_equiv_pos_site_id
 _symmetry_equiv_pos_as_xyz
  1  'x, y, z'
loop_
 _atom_site_type_symbol
 _atom_site_label
 _atom_site_symmetry_multiplicity
 _atom_site_fract_x
 _atom_site_fract_y
 _atom_site_fract_z
 _atom_site_occupancy
  Li  Li0  1  0.24852642  0.92271787  0.98155452  1
  Li  Li1  1  0.74852643  0.57728217  0.98155450  1
  Li  Li2  1  0.75147361  0.07728032  0.48155294  1
  Li  Li3  1  0.25147363  0.42271969  0.48155296  1
  I  I4  1  0.25072695  0.00007276  0.54120472  1
  I  I5  1  0.75072695  0.49992721  0.54120471  1
  I  I6  1  0.74927300  -0.00007292  0.04120483  1
  I  I7  1  0.24927300  0.50007289  0.04120486  1
