# generated using pymatgen
data_LiBr
_symmetry_space_group_name_H-M   'P 1'
_cell_length_a   11.01748388
_cell_length_b   11.01779991
_cell_length_c   7.23511434
_cell_angle_alpha   89.99985957
_cell_angle_beta   90.00003030
_cell_angle_gamma   89.99985215
_symmetry_Int_Tables_number   1
_chemical_formula_structural   LiBr
_chemical_formula_sum   'Li16 Br16'
_cell_volume   878.25919100
_cell_formula_units_Z   16
loop_
 _symmetry_equiv_pos_site_id
 _symmetry_equiv_pos_as_xyz
  1  'x, y, z'
loop_
 _atom_site_type_symbol
 _atom_site_label
 _atom_site_symmetry_multiplicity
 _atom_site_fract_x
 _atom_site_fract_y
 _atom_site_fract_z
 _atom_site_occupancy
  Li  Li0  1  0.87504580  0.05458627  0.43917370  1
  Li  Li1  1  0.55455608  0.87500841  0.68906056  1
  Li  Li2  1  0.12495382  0.05458399  0.93917409  1
  Li  Li3  1  0.12495529  0.94541246  0.43916923  1
  Li  Li4  1  0.44544460  0.12499018  0.68906023  1
  Li  Li5  1  0.94544476  0.37501105  0.68906280  1
  Li  Li6  1  0.05455500  0.62499037  0.68906087  1
  Li  Li7  1  0.44544124  0.87501065  0.18905963  1
  Li  Li8  1  0.55455882  0.12499071  0.18905763  1
  Li  Li9  1  0.62495402  0.44541435  0.93917683  1
  Li  Li10  1  0.94543595  0.62499052  0.18905374  1
  Li  Li11  1  0.37504660  0.55458444  0.93918131  1
  Li  Li12  1  0.05456466  0.37500856  0.18905419  1
  Li  Li13  1  0.62495361  0.55458498  0.43917912  1
  Li  Li14  1  0.37504608  0.44541606  0.43918081  1
  Li  Li15  1  0.87504604  0.94541691  0.93917514  1
  Br  Br16  1  0.44692432  0.35001398  0.74850952  1
  Br  Br17  1  0.85002667  0.44691077  -0.00157750  1
  Br  Br18  1  0.55307566  0.35001503  0.24850831  1
  Br  Br19  1  0.55307524  0.64998474  0.74851008  1
  Br  Br20  1  0.14997331  0.55308928  -0.00157844  1
  Br  Br21  1  0.64997281  0.94691054  -0.00157838  1
  Br  Br22  1  0.35002673  0.05308938  -0.00157849  1
  Br  Br23  1  0.14997308  0.44691031  0.49842166  1
  Br  Br24  1  0.85002632  0.55308975  0.49842176  1
  Br  Br25  1  0.05307756  0.14998409  0.24850690  1
  Br  Br26  1  0.64997269  0.05308902  0.49842189  1
  Br  Br27  1  0.94692256  0.85001480  0.24850586  1
  Br  Br28  1  0.35002762  0.94691056  0.49842247  1
  Br  Br29  1  0.05307589  0.85001499  0.74850569  1
  Br  Br30  1  0.94692360  0.14998651  0.74850773  1
  Br  Br31  1  0.44692356  0.64998634  0.24850994  1
