# generated using pymatgen
data_LiI
_symmetry_space_group_name_H-M   'P 1'
_cell_length_a   9.15857106
_cell_length_b   4.90779623
_cell_length_c   7.79469135
_cell_angle_alpha   89.99994514
_cell_angle_beta   90.00460262
_cell_angle_gamma   89.99802354
_symmetry_Int_Tables_number   1
_chemical_formula_structural   LiI
_chemical_formula_sum   'Li4 I4'
_cell_volume   350.35890709
_cell_formula_units_Z   4
loop_
 _symmetry_equiv_pos_site_id
 _symmetry_equiv_pos_as_xyz
  1  'x, y, z'
loop_
 _atom_site_type_symbol
 _atom_site_label
 _atom_site_symmetry_multiplicity
 _atom_site_fract_x
 _atom_site_fract_y
 _atom_site_fract_z
 _atom_site_occupancy
  Li  Li0  1  0.25227127  0.25023478  0.88917357  1
  Li  Li1  1  0.74806149  0.25027767  0.61081622  1
  Li  Li2  1  0.74773733  0.74976626  0.38915558  1
  Li  Li3  1  0.25192718  0.74972016  0.11084011  1
  I  I4  1  0.24948960  0.75000630  0.76112433  1
  I  I5  1  0.75004573  0.75004112  0.73888334  1
  I  I6  1  0.75051558  0.24999925  0.26109865  1
  I  I7  1  0.24995181  0.24995445  0.23890819  1
