# generated using pymatgen
data_LiBr
_symmetry_space_group_name_H-M   'P 1'
_cell_length_a   6.56376612
_cell_length_b   6.56650903
_cell_length_c   3.97045860
_cell_angle_alpha   90.01249423
_cell_angle_beta   89.99896136
_cell_angle_gamma   119.99676395
_symmetry_Int_Tables_number   1
_chemical_formula_structural   LiBr
_chemical_formula_sum   'Li3 Br3'
_cell_volume   148.20849449
_cell_formula_units_Z   3
loop_
 _symmetry_equiv_pos_site_id
 _symmetry_equiv_pos_as_xyz
  1  'x, y, z'
loop_
 _atom_site_type_symbol
 _atom_site_label
 _atom_site_symmetry_multiplicity
 _atom_site_fract_x
 _atom_site_fract_y
 _atom_site_fract_z
 _atom_site_occupancy
  Li  Li0  1  0.39196826  -0.00079948  0.14429799  1
  Li  Li1  1  0.00091579  0.39285640  0.81061177  1
  Li  Li2  1  0.60733938  0.60814321  0.47743554  1
  Br  Br3  1  0.64256856  0.00027274  0.64483841  1
  Br  Br4  1  -0.00046890  0.64218256  0.31117849  1
  Br  Br5  1  0.35767692  0.35734458  0.97803393  1
