# generated using pymatgen
data_LiBr
_symmetry_space_group_name_H-M   'P 1'
_cell_length_a   3.89701958
_cell_length_b   3.89734980
_cell_length_c   10.99079339
_cell_angle_alpha   89.99945912
_cell_angle_beta   89.99942270
_cell_angle_gamma   90.00442066
_symmetry_Int_Tables_number   1
_chemical_formula_structural   LiBr
_chemical_formula_sum   'Li4 Br4'
_cell_volume   166.92870215
_cell_formula_units_Z   4
loop_
 _symmetry_equiv_pos_site_id
 _symmetry_equiv_pos_as_xyz
  1  'x, y, z'
loop_
 _atom_site_type_symbol
 _atom_site_label
 _atom_site_symmetry_multiplicity
 _atom_site_fract_x
 _atom_site_fract_y
 _atom_site_fract_z
 _atom_site_occupancy
  Li  Li0  1  0.50026043  -0.00295024  0.23613366  1
  Li  Li1  1  -0.00314002  0.49883808  0.48610462  1
  Li  Li2  1  0.49973988  0.00294757  0.73612865  1
  Li  Li3  1  0.00314188  0.50116775  0.98610452  1
  Br  Br4  1  0.49826560  0.00003566  0.48614495  1
  Br  Br5  1  0.00129878  0.50178377  0.73609604  1
  Br  Br6  1  0.50173310  -0.00003988  -0.01385512  1
  Br  Br7  1  -0.00129964  0.49821729  0.23608983  1
