# generated using pymatgen
data_NaI
_symmetry_space_group_name_H-M   'P 1'
_cell_length_a   9.24802367
_cell_length_b   9.24364004
_cell_length_c   13.04600640
_cell_angle_alpha   89.99955263
_cell_angle_beta   89.99968381
_cell_angle_gamma   90.00127869
_symmetry_Int_Tables_number   1
_chemical_formula_structural   NaI
_chemical_formula_sum   'Na16 I16'
_cell_volume   1115.24310061
_cell_formula_units_Z   16
loop_
 _symmetry_equiv_pos_site_id
 _symmetry_equiv_pos_as_xyz
  1  'x, y, z'
loop_
 _atom_site_type_symbol
 _atom_site_label
 _atom_site_symmetry_multiplicity
 _atom_site_fract_x
 _atom_site_fract_y
 _atom_site_fract_z
 _atom_site_occupancy
  Na  Na0  1  -0.00094620  0.75079598  0.36334835  1
  Na  Na1  1  0.25167137  -0.00117087  0.61104004  1
  Na  Na2  1  0.00094620  0.75079602  0.86334866  1
  Na  Na3  1  0.00094636  0.24920501  0.36334602  1
  Na  Na4  1  0.74833108  0.00116987  0.61104112  1
  Na  Na5  1  0.24832884  0.49882929  0.61104125  1
  Na  Na6  1  0.75166896  0.50117047  0.61104030  1
  Na  Na7  1  0.74832866  -0.00117068  0.11104129  1
  Na  Na8  1  0.25166864  0.00117033  0.11104028  1
  Na  Na9  1  0.50094665  0.74920485  0.86334610  1
  Na  Na10  1  0.24833092  0.50116980  0.11104115  1
  Na  Na11  1  0.49905415  0.25079592  0.86334838  1
  Na  Na12  1  0.75167116  0.49882898  0.11104003  1
  Na  Na13  1  0.50094593  0.25079605  0.36334867  1
  Na  Na14  1  0.49905307  0.74920514  0.36334623  1
  Na  Na15  1  -0.00094662  0.24920509  0.86334620  1
  I  I16  1  0.75080156  0.49929312  0.86124069  1
  I  I17  1  -0.00014134  0.75077602  0.11172864  1
  I  I18  1  0.24919840  0.49929318  0.36124098  1
  I  I19  1  0.24919673  0.50070700  0.86124240  1
  I  I20  1  0.00014036  0.24922258  0.11172673  1
  I  I21  1  0.50014160  0.25077694  0.11172826  1
  I  I22  1  0.49985963  0.74922320  0.11172698  1
  I  I23  1  0.00014181  0.75077701  0.61172827  1
  I  I24  1  -0.00014020  0.24922326  0.61172698  1
  I  I25  1  0.74919649  0.00070706  0.36124236  1
  I  I26  1  0.50014044  0.74922259  0.61172677  1
  I  I27  1  0.25080135  -0.00070674  0.36124075  1
  I  I28  1  0.49985889  0.25077610  0.61172865  1
  I  I29  1  0.74919860  -0.00070691  0.86124101  1
  I  I30  1  0.25080337  0.00070715  0.86124177  1
  I  I31  1  0.75080316  0.50070716  0.36124183  1
