# generated using pymatgen
data_KI
_symmetry_space_group_name_H-M   'P 1'
_cell_length_a   5.48814413
_cell_length_b   13.94483882
_cell_length_c   4.63742705
_cell_angle_alpha   90.00000594
_cell_angle_beta   89.99998856
_cell_angle_gamma   90.00000043
_symmetry_Int_Tables_number   1
_chemical_formula_structural   KI
_chemical_formula_sum   'K4 I4'
_cell_volume   354.90825289
_cell_formula_units_Z   4
loop_
 _symmetry_equiv_pos_site_id
 _symmetry_equiv_pos_as_xyz
  1  'x, y, z'
loop_
 _atom_site_type_symbol
 _atom_site_label
 _atom_site_symmetry_multiplicity
 _atom_site_fract_x
 _atom_site_fract_y
 _atom_site_fract_z
 _atom_site_occupancy
  K  K0  1  0.74769075  0.12786788  0.90005376  1
  K  K1  1  0.24769077  0.37213211  0.90005348  1
  K  K2  1  0.25230916  0.87213212  0.40005366  1
  K  K3  1  0.75230920  0.62786788  0.40005433  1
  I  I4  1  0.75210512  0.87245524  0.90013253  1
  I  I5  1  0.25210516  0.62754476  0.90013307  1
  I  I6  1  0.24789492  0.12754477  0.40013272  1
  I  I7  1  0.74789492  0.37245523  0.40013260  1
