# generated using pymatgen
data_LiI
_symmetry_space_group_name_H-M   'P 1'
_cell_length_a   11.63557427
_cell_length_b   11.64030432
_cell_length_c   8.12798383
_cell_angle_alpha   89.99968428
_cell_angle_beta   89.99964565
_cell_angle_gamma   89.99999451
_symmetry_Int_Tables_number   1
_chemical_formula_structural   LiI
_chemical_formula_sum   'Li16 I16'
_cell_volume   1100.86734110
_cell_formula_units_Z   16
loop_
 _symmetry_equiv_pos_site_id
 _symmetry_equiv_pos_as_xyz
  1  'x, y, z'
loop_
 _atom_site_type_symbol
 _atom_site_label
 _atom_site_symmetry_multiplicity
 _atom_site_fract_x
 _atom_site_fract_y
 _atom_site_fract_z
 _atom_site_occupancy
  Li  Li0  1  0.12152600  0.94420715  0.55073349  1
  Li  Li1  1  0.44434385  0.12147490  0.80080233  1
  Li  Li2  1  0.87847346  0.94420277  0.05073791  1
  Li  Li3  1  0.87847214  0.05579376  0.55073942  1
  Li  Li4  1  0.55565659  0.87852312  0.80081023  1
  Li  Li5  1  0.05565666  0.62147506  0.80080337  1
  Li  Li6  1  0.94434365  0.37852610  0.80080723  1
  Li  Li7  1  0.55565499  0.12147551  0.30080320  1
  Li  Li8  1  0.44434545  0.87852553  0.30080778  1
  Li  Li9  1  0.37847192  0.55579448  0.05074064  1
  Li  Li10  1  0.05565746  0.37852370  0.30081020  1
  Li  Li11  1  0.62152607  0.44420669  0.05073495  1
  Li  Li12  1  0.94434337  0.62147379  0.30080171  1
  Li  Li13  1  0.37847198  0.44420441  0.55073973  1
  Li  Li14  1  0.62152852  0.55579435  0.55073650  1
  Li  Li15  1  0.12152714  0.05579619  0.05073452  1
  I  I16  1  0.33541112  0.03497526  0.50878956  1
  I  I17  1  0.53482167  0.33541924  0.75897099  1
  I  I18  1  0.66458930  0.03497296  0.00879268  1
  I  I19  1  0.66458626  0.96502691  0.50879289  1
  I  I20  1  0.46517974  0.66457883  0.75897346  1
  I  I21  1  0.96517883  0.83542108  0.75897004  1
  I  I22  1  0.03482049  0.16458078  0.75897114  1
  I  I23  1  0.46517816  0.33542158  0.25897116  1
  I  I24  1  0.53482113  0.66458019  0.25897216  1
  I  I25  1  0.16458665  0.46502713  0.00879316  1
  I  I26  1  0.96518030  0.16457862  0.25897283  1
  I  I27  1  0.83541075  0.53497511  0.00878910  1
  I  I28  1  0.03482135  0.83541914  0.25897013  1
  I  I29  1  0.16458910  0.53497373  0.50879214  1
  I  I30  1  0.83541295  0.46502544  0.50879032  1
  I  I31  1  0.33541296  0.96502649  0.00879157  1
