# generated using pymatgen
data_NaI
_symmetry_space_group_name_H-M   'P 1'
_cell_length_a   7.99749192
_cell_length_b   4.89080018
_cell_length_c   11.49427284
_cell_angle_alpha   89.99632438
_cell_angle_beta   134.26812433
_cell_angle_gamma   89.99918231
_symmetry_Int_Tables_number   1
_chemical_formula_structural   NaI
_chemical_formula_sum   'Na4 I4'
_cell_volume   321.94188790
_cell_formula_units_Z   4
loop_
 _symmetry_equiv_pos_site_id
 _symmetry_equiv_pos_as_xyz
  1  'x, y, z'
loop_
 _atom_site_type_symbol
 _atom_site_label
 _atom_site_symmetry_multiplicity
 _atom_site_fract_x
 _atom_site_fract_y
 _atom_site_fract_z
 _atom_site_occupancy
  Na  Na0  1  0.25056106  0.50239775  0.25053007  1
  Na  Na1  1  0.74940412  0.00240193  0.24946642  1
  Na  Na2  1  0.74943893  0.49760227  0.74946993  1
  Na  Na3  1  0.25059588  -0.00240191  0.75053358  1
  I  I4  1  0.25074486  0.75311310  0.50016894  1
  I  I5  1  0.74925874  0.25311126  -0.00016558  1
  I  I6  1  0.74925513  0.24688689  0.49983106  1
  I  I7  1  0.25074129  0.74688871  0.00016559  1
