# generated using pymatgen
data_LiCl
_symmetry_space_group_name_H-M   'P 1'
_cell_length_a   5.13148788
_cell_length_b   5.13922376
_cell_length_c   5.14478182
_cell_angle_alpha   89.99998732
_cell_angle_beta   90.14113480
_cell_angle_gamma   89.99993483
_symmetry_Int_Tables_number   1
_chemical_formula_structural   LiCl
_chemical_formula_sum   'Li4 Cl4'
_cell_volume   135.67707717
_cell_formula_units_Z   4
loop_
 _symmetry_equiv_pos_site_id
 _symmetry_equiv_pos_as_xyz
  1  'x, y, z'
loop_
 _atom_site_type_symbol
 _atom_site_label
 _atom_site_symmetry_multiplicity
 _atom_site_fract_x
 _atom_site_fract_y
 _atom_site_fract_z
 _atom_site_occupancy
  Li  Li0  1  0.13410032  0.75264945  0.09407731  1
  Li  Li1  1  0.63410401  0.25265347  0.09407683  1
  Li  Li2  1  0.13410376  0.24734793  0.59407424  1
  Li  Li3  1  0.63410106  0.74734976  0.59407275  1
  Cl  Cl4  1  0.63436377  0.24904453  0.59256943  1
  Cl  Cl5  1  0.13436014  0.74904464  0.59257020  1
  Cl  Cl6  1  0.63436334  0.75095580  0.09256947  1
  Cl  Cl7  1  0.13436126  0.25095441  0.09256992  1
