# generated using pymatgen
data_LiI
_symmetry_space_group_name_H-M   'P 1'
_cell_length_a   13.05240363
_cell_length_b   13.05240774
_cell_length_c   13.05242399
_cell_angle_alpha   90.00058287
_cell_angle_beta   89.99972104
_cell_angle_gamma   89.99977140
_symmetry_Int_Tables_number   1
_chemical_formula_structural   LiI
_chemical_formula_sum   'Li24 I24'
_cell_volume   2223.68005251
_cell_formula_units_Z   24
loop_
 _symmetry_equiv_pos_site_id
 _symmetry_equiv_pos_as_xyz
  1  'x, y, z'
loop_
 _atom_site_type_symbol
 _atom_site_label
 _atom_site_symmetry_multiplicity
 _atom_site_fract_x
 _atom_site_fract_y
 _atom_site_fract_z
 _atom_site_occupancy
  Li  Li0  1  0.25949965  0.84386091  0.07374580  1
  Li  Li1  1  0.75949946  0.65613946  0.92625350  1
  Li  Li2  1  0.57374816  0.25949889  0.65613738  1
  Li  Li3  1  0.57375019  0.24050032  0.15613627  1
  Li  Li4  1  0.34386166  0.42625093  0.74050010  1
  Li  Li5  1  0.07374845  0.25949912  0.84386074  1
  Li  Li6  1  0.92625060  0.75950028  0.65613581  1
  Li  Li7  1  0.42625356  0.74050077  0.34386225  1
  Li  Li8  1  0.15613802  0.57374844  0.24050027  1
  Li  Li9  1  0.84386257  0.07374813  0.25950048  1
  Li  Li10  1  0.65613628  0.92625337  0.75949772  1
  Li  Li11  1  0.74050135  0.34386099  0.42625260  1
  Li  Li12  1  0.24050060  0.15613632  0.57374823  1
  Li  Li13  1  0.92625072  0.74050108  0.15613905  1
  Li  Li14  1  0.07374832  0.24049984  0.34386293  1
  Li  Li15  1  0.42625156  0.75949903  0.84386276  1
  Li  Li16  1  0.65613890  0.57374636  0.25950056  1
  Li  Li17  1  0.84386096  0.42625421  0.75950042  1
  Li  Li18  1  0.15613580  0.92625077  0.74050135  1
  Li  Li19  1  0.34386104  0.07374706  0.24050076  1
  Li  Li20  1  0.25949860  0.65613916  0.57374818  1
  Li  Li21  1  0.75949916  0.84386333  0.42625273  1
  Li  Li22  1  0.74050188  0.15613786  0.92625206  1
  Li  Li23  1  0.24050125  0.34386137  0.07374834  1
  I  I24  1  0.88428461  0.20076614  0.41489470  1
  I  I25  1  0.38428495  0.29923233  0.58510501  1
  I  I26  1  -0.08510545  0.88428441  0.29923532  1
  I  I27  1  -0.08510544  0.61571876  0.79923478  1
  I  I28  1  0.70076901  0.08510597  0.11571516  1
  I  I29  1  0.41489536  0.88428355  0.20076446  1
  I  I30  1  0.58510533  0.38428238  0.29923507  1
  I  I31  1  0.08510529  0.11571459  0.70076611  1
  I  I32  1  0.79923356  -0.08510436  0.61571578  1
  I  I33  1  0.20076498  0.41489620  0.88428525  1
  I  I34  1  0.29923453  0.58510480  0.38428469  1
  I  I35  1  0.11571426  0.70076486  0.08510438  1
  I  I36  1  0.61571571  0.79923600  -0.08510526  1
  I  I37  1  0.58510462  0.11571680  0.79923503  1
  I  I38  1  0.41489472  0.61571623  0.70076455  1
  I  I39  1  0.08510504  0.38428345  0.20076661  1
  I  I40  1  0.29923321  -0.08510554  0.88428305  1
  I  I41  1  0.20076506  0.08510502  0.38428453  1
  I  I42  1  0.79923475  0.58510352  0.11571589  1
  I  I43  1  0.70076538  0.41489585  0.61571545  1
  I  I44  1  0.88428497  0.29923586  -0.08510525  1
  I  I45  1  0.38428534  0.20076492  0.08510504  1
  I  I46  1  0.11571500  0.79923400  0.58510557  1
  I  I47  1  0.61571649  0.70076627  0.41489383  1
