# generated using pymatgen
data_NaBr
_symmetry_space_group_name_H-M   'P 1'
_cell_length_a   11.87022375
_cell_length_b   11.87020555
_cell_length_c   7.79860180
_cell_angle_alpha   89.99976068
_cell_angle_beta   89.99982375
_cell_angle_gamma   89.99999992
_symmetry_Int_Tables_number   1
_chemical_formula_structural   NaBr
_chemical_formula_sum   'Na16 Br16'
_cell_volume   1098.83855712
_cell_formula_units_Z   16
loop_
 _symmetry_equiv_pos_site_id
 _symmetry_equiv_pos_as_xyz
  1  'x, y, z'
loop_
 _atom_site_type_symbol
 _atom_site_label
 _atom_site_symmetry_multiplicity
 _atom_site_fract_x
 _atom_site_fract_y
 _atom_site_fract_z
 _atom_site_occupancy
  Na  Na0  1  0.95154120  0.63526493  0.96335613  1
  Na  Na1  1  0.13526460  0.95154125  0.21335497  1
  Na  Na2  1  0.04845862  0.63526481  0.46335560  1
  Na  Na3  1  0.04845930  0.36473446  0.96335766  1
  Na  Na4  1  0.86473429  0.04845918  0.21335564  1
  Na  Na5  1  0.36473444  0.45154065  0.21335650  1
  Na  Na6  1  0.63526451  0.54845900  0.21335385  1
  Na  Na7  1  0.86473481  0.95154084  0.71335588  1
  Na  Na8  1  0.13526486  0.04845927  0.71335452  1
  Na  Na9  1  0.54845932  0.86473404  0.46335830  1
  Na  Na10  1  0.36473457  0.54845941  0.71335604  1
  Na  Na11  1  0.45154142  0.13526451  0.46335587  1
  Na  Na12  1  0.63526487  0.45154130  0.71335459  1
  Na  Na13  1  0.54845855  0.13526491  0.96335605  1
  Na  Na14  1  0.45154109  0.86473425  0.96335868  1
  Na  Na15  1  0.95154103  0.36473399  0.46335831  1
  Br  Br16  1  0.34651380  0.94852106  0.64385342  1
  Br  Br17  1  0.44852170  0.34651386  0.89385202  1
  Br  Br18  1  0.65348680  0.94852088  0.14385086  1
  Br  Br19  1  0.65348714  0.05147947  0.64384985  1
  Br  Br20  1  0.55147943  0.65348762  0.89384705  1
  Br  Br21  1  0.05147911  0.84651359  0.89385073  1
  Br  Br22  1  0.94852062  0.15348718  0.89384862  1
  Br  Br23  1  0.55147881  0.34651358  0.39385134  1
  Br  Br24  1  0.44852023  0.65348717  0.39384787  1
  Br  Br25  1  0.15348705  0.55147946  0.14384923  1
  Br  Br26  1  0.05147887  0.15348694  0.39384787  1
  Br  Br27  1  0.84651371  0.44852103  0.14385353  1
  Br  Br28  1  0.94852110  0.84651341  0.39385125  1
  Br  Br29  1  0.15348713  0.44852081  0.64385016  1
  Br  Br30  1  0.84651360  0.55147863  0.64385236  1
  Br  Br31  1  0.34651343  0.05147852  0.14385243  1
