# generated using pymatgen
data_LiBr
_symmetry_space_group_name_H-M   'P 1'
_cell_length_a   5.48084124
_cell_length_b   5.50789450
_cell_length_c   5.51814273
_cell_angle_alpha   89.99999796
_cell_angle_beta   90.00015572
_cell_angle_gamma   89.99999816
_symmetry_Int_Tables_number   1
_chemical_formula_structural   LiBr
_chemical_formula_sum   'Li4 Br4'
_cell_volume   166.58111501
_cell_formula_units_Z   4
loop_
 _symmetry_equiv_pos_site_id
 _symmetry_equiv_pos_as_xyz
  1  'x, y, z'
loop_
 _atom_site_type_symbol
 _atom_site_label
 _atom_site_symmetry_multiplicity
 _atom_site_fract_x
 _atom_site_fract_y
 _atom_site_fract_z
 _atom_site_occupancy
  Li  Li0  1  0.49821206  0.75053247  0.68339576  1
  Li  Li1  1  -0.00178766  0.24946768  0.68339327  1
  Li  Li2  1  0.50179367  0.24948320  0.18340274  1
  Li  Li3  1  0.00179335  0.75051633  0.18340252  1
  Br  Br4  1  0.50011356  0.75015718  0.18644714  1
  Br  Br5  1  0.00011365  0.24984290  0.18644714  1
  Br  Br6  1  0.49988074  0.24984555  0.68644827  1
  Br  Br7  1  -0.00011935  0.75015468  0.68644814  1
