# generated using pymatgen
data_NaI
_symmetry_space_group_name_H-M   'P 1'
_cell_length_a   4.58817987
_cell_length_b   12.39966195
_cell_length_c   5.84879688
_cell_angle_alpha   89.99999476
_cell_angle_beta   113.20424902
_cell_angle_gamma   90.00009682
_symmetry_Int_Tables_number   1
_chemical_formula_structural   NaI
_chemical_formula_sum   'Na4 I4'
_cell_volume   305.83168560
_cell_formula_units_Z   4
loop_
 _symmetry_equiv_pos_site_id
 _symmetry_equiv_pos_as_xyz
  1  'x, y, z'
loop_
 _atom_site_type_symbol
 _atom_site_label
 _atom_site_symmetry_multiplicity
 _atom_site_fract_x
 _atom_site_fract_y
 _atom_site_fract_z
 _atom_site_occupancy
  Na  Na0  1  0.06130362  0.87465238  -0.01694115  1
  Na  Na1  1  0.56130323  0.37465241  -0.01694111  1
  Na  Na2  1  0.06129977  0.12534714  0.48306587  1
  Na  Na3  1  0.56129939  0.62534710  0.48306591  1
  I  I4  1  0.35628651  0.12470221  0.07471022  1
  I  I5  1  0.85628620  0.62470222  0.07471028  1
  I  I6  1  0.35628740  0.87529827  0.57470733  1
  I  I7  1  0.85628706  0.37529826  0.57470737  1
