# generated using pymatgen
data_LiI
_symmetry_space_group_name_H-M   'P 1'
_cell_length_a   10.35316357
_cell_length_b   11.34781200
_cell_length_c   10.00936361
_cell_angle_alpha   90.00073703
_cell_angle_beta   90.00002330
_cell_angle_gamma   90.00035696
_symmetry_Int_Tables_number   1
_chemical_formula_structural   LiI
_chemical_formula_sum   'Li16 I16'
_cell_volume   1175.95762893
_cell_formula_units_Z   16
loop_
 _symmetry_equiv_pos_site_id
 _symmetry_equiv_pos_as_xyz
  1  'x, y, z'
loop_
 _atom_site_type_symbol
 _atom_site_label
 _atom_site_symmetry_multiplicity
 _atom_site_fract_x
 _atom_site_fract_y
 _atom_site_fract_z
 _atom_site_occupancy
  Li  Li0  1  0.75028384  0.39820474  0.80691519  1
  Li  Li1  1  0.24971414  0.60179523  0.80691794  1
  Li  Li2  1  0.49971719  0.64820268  0.05691488  1
  Li  Li3  1  0.74971416  0.60179562  0.30691883  1
  Li  Li4  1  -0.00028207  0.64820309  0.55691373  1
  Li  Li5  1  0.00028459  0.85179724  0.05691708  1
  Li  Li6  1  0.25028407  0.39820501  0.30691636  1
  Li  Li7  1  -0.00028243  0.14820208  0.05691399  1
  Li  Li8  1  0.00028416  0.35179682  0.55691733  1
  Li  Li9  1  0.25028404  -0.10179532  0.80691583  1
  Li  Li10  1  0.74971407  0.10179571  0.80691820  1
  Li  Li11  1  0.49971777  0.14820288  0.55691464  1
  Li  Li12  1  0.50028434  0.85179707  0.55691699  1
  Li  Li13  1  0.50028446  0.35179768  0.05691697  1
  Li  Li14  1  0.75028345  -0.10179534  0.30691532  1
  Li  Li15  1  0.24971416  0.10179532  0.30691824  1
  I  I16  1  0.96498745  0.24987903  0.80716031  1
  I  I17  1  0.03501206  0.75012131  0.80715957  1
  I  I18  1  0.28501524  0.49987863  0.05716107  1
  I  I19  1  0.53501317  0.75012081  0.30715876  1
  I  I20  1  0.78501750  0.49987910  0.55716070  1
  I  I21  1  0.21498435  0.00012094  0.05716128  1
  I  I22  1  0.46498804  0.24987905  0.30715908  1
  I  I23  1  0.78501578  -0.00012149  0.05716041  1
  I  I24  1  0.21498281  0.50012047  0.55716067  1
  I  I25  1  0.46498764  0.74987892  0.80716006  1
  I  I26  1  0.53501240  0.25012115  0.80715991  1
  I  I27  1  0.28501609  -0.00012095  0.55716121  1
  I  I28  1  0.71498425  0.00012112  0.55716112  1
  I  I29  1  0.71498488  0.50012110  0.05716031  1
  I  I30  1  0.96498656  0.74987951  0.30715868  1
  I  I31  1  0.03501184  0.25012079  0.30715820  1
