# generated using pymatgen
data_NaI
_symmetry_space_group_name_H-M   'P 1'
_cell_length_a   4.47358036
_cell_length_b   8.38561174
_cell_length_c   8.59309074
_cell_angle_alpha   90.00118271
_cell_angle_beta   90.00003993
_cell_angle_gamma   90.00001666
_symmetry_Int_Tables_number   1
_chemical_formula_structural   NaI
_chemical_formula_sum   'Na4 I4'
_cell_volume   322.35869717
_cell_formula_units_Z   4
loop_
 _symmetry_equiv_pos_site_id
 _symmetry_equiv_pos_as_xyz
  1  'x, y, z'
loop_
 _atom_site_type_symbol
 _atom_site_label
 _atom_site_symmetry_multiplicity
 _atom_site_fract_x
 _atom_site_fract_y
 _atom_site_fract_z
 _atom_site_occupancy
  Na  Na0  1  0.50098107  0.66434864  0.29909845  1
  Na  Na1  1  0.49901995  0.16435642  0.20091763  1
  Na  Na2  1  -0.00098020  0.33564348  0.79908219  1
  Na  Na3  1  0.00098082  0.83565125  0.70090177  1
  I  I4  1  0.49919253  0.56348537  0.65452165  1
  I  I5  1  0.50080655  0.06349314  0.84548054  1
  I  I6  1  0.00080630  0.43650698  0.15451880  1
  I  I7  1  -0.00080702  0.93651471  0.34547897  1
