# generated using pymatgen
data_LiI
_symmetry_space_group_name_H-M   'P 1'
_cell_length_a   8.15398585
_cell_length_b   8.15424587
_cell_length_c   4.35158444
_cell_angle_alpha   89.99936466
_cell_angle_beta   90.00001808
_cell_angle_gamma   90.00143380
_symmetry_Int_Tables_number   1
_chemical_formula_structural   LiI
_chemical_formula_sum   'Li4 I4'
_cell_volume   289.33513248
_cell_formula_units_Z   4
loop_
 _symmetry_equiv_pos_site_id
 _symmetry_equiv_pos_as_xyz
  1  'x, y, z'
loop_
 _atom_site_type_symbol
 _atom_site_label
 _atom_site_symmetry_multiplicity
 _atom_site_fract_x
 _atom_site_fract_y
 _atom_site_fract_z
 _atom_site_occupancy
  Li  Li0  1  0.16013548  0.57172225  0.55301079  1
  Li  Li1  1  0.57173551  0.83985172  0.80303671  1
  Li  Li2  1  0.83985391  0.42827502  0.05299598  1
  Li  Li3  1  0.42828111  0.16014017  0.30301713  1
  I  I4  1  0.82596571  0.64532952  0.56006611  1
  I  I5  1  0.64532202  0.17404235  0.81001138  1
  I  I6  1  0.17402755  0.35467459  0.06007650  1
  I  I7  1  0.35467871  0.82596437  0.31003208  1
