# generated using pymatgen
data_NaBr
_symmetry_space_group_name_H-M   'P 1'
_cell_length_a   11.70162590
_cell_length_b   11.70162624
_cell_length_c   11.70162767
_cell_angle_alpha   90.00000959
_cell_angle_beta   89.99998627
_cell_angle_gamma   89.99998509
_symmetry_Int_Tables_number   1
_chemical_formula_structural   NaBr
_chemical_formula_sum   'Na24 Br24'
_cell_volume   1602.28109044
_cell_formula_units_Z   24
loop_
 _symmetry_equiv_pos_site_id
 _symmetry_equiv_pos_as_xyz
  1  'x, y, z'
loop_
 _atom_site_type_symbol
 _atom_site_label
 _atom_site_symmetry_multiplicity
 _atom_site_fract_x
 _atom_site_fract_y
 _atom_site_fract_z
 _atom_site_occupancy
  Na  Na0  1  0.25007274  0.99948889  0.49575465  1
  Na  Na1  1  0.75007271  0.50051118  0.50424622  1
  Na  Na2  1  -0.00424703  0.25007270  0.50051224  1
  Na  Na3  1  -0.00424605  0.24992678  0.00051168  1
  Na  Na4  1  0.49948798  0.00424631  0.74992959  1
  Na  Na5  1  0.49575452  0.25007351  0.99948820  1
  Na  Na6  1  0.50424660  0.75007305  0.50051263  1
  Na  Na7  1  0.00424688  0.74992735  0.49948768  1
  Na  Na8  1  0.00051253  -0.00424562  0.24992451  1
  Na  Na9  1  0.99948804  0.49575424  0.25007271  1
  Na  Na10  1  0.50051160  0.50424632  0.75007291  1
  Na  Na11  1  0.74992700  0.49948819  0.00424723  1
  Na  Na12  1  0.24992659  0.00051195  -0.00424743  1
  Na  Na13  1  0.50424553  0.74992645  0.00051184  1
  Na  Na14  1  0.49575327  0.24992688  0.49948745  1
  Na  Na15  1  0.00424617  0.75007323  0.99948825  1
  Na  Na16  1  0.50051209  -0.00424637  0.25007047  1
  Na  Na17  1  0.99948754  0.00424579  0.75007550  1
  Na  Na18  1  0.00051195  0.50424589  0.74992731  1
  Na  Na19  1  0.49948842  0.49575368  0.24992706  1
  Na  Na20  1  0.25007295  0.50051176  -0.00424737  1
  Na  Na21  1  0.75007345  0.99948799  0.00424753  1
  Na  Na22  1  0.74992728  0.00051108  0.50424548  1
  Na  Na23  1  0.24992725  0.49948877  0.49575364  1
  Br  Br24  1  0.75410324  0.74982133  0.00206571  1
  Br  Br25  1  0.25410319  0.75017857  -0.00206519  1
  Br  Br26  1  0.50206496  0.75410367  0.75017916  1
  Br  Br27  1  0.50206444  0.74589621  0.25017828  1
  Br  Br28  1  0.24982168  0.49793546  0.24589634  1
  Br  Br29  1  0.00206447  0.75410338  0.74982175  1
  Br  Br30  1  -0.00206562  0.25410321  0.75017911  1
  Br  Br31  1  0.49793503  0.24589631  0.24982092  1
  Br  Br32  1  0.25017854  0.50206453  0.74589562  1
  Br  Br33  1  0.74982140  0.00206409  0.75410430  1
  Br  Br34  1  0.75017920  -0.00206494  0.25410320  1
  Br  Br35  1  0.24589580  0.24982200  0.49793618  1
  Br  Br36  1  0.74589555  0.25017777  0.50206342  1
  Br  Br37  1  -0.00206448  0.24589674  0.25017818  1
  Br  Br38  1  0.00206562  0.74589690  0.24982085  1
  Br  Br39  1  0.49793556  0.25410377  0.74982177  1
  Br  Br40  1  0.75017832  0.50206453  0.75410355  1
  Br  Br41  1  0.74982144  0.49793547  0.25410429  1
  Br  Br42  1  0.25017866  -0.00206409  0.24589576  1
  Br  Br43  1  0.24982088  0.00206492  0.74589690  1
  Br  Br44  1  0.75410406  0.75017795  0.50206383  1
  Br  Br45  1  0.25410434  0.74982219  0.49793659  1
  Br  Br46  1  0.24589684  0.25017863  -0.00206571  1
  Br  Br47  1  0.74589688  0.24982138  0.00206519  1
