# generated using pymatgen
data_KI
_symmetry_space_group_name_H-M   'P 1'
_cell_length_a   8.54169707
_cell_length_b   4.96186133
_cell_length_c   8.84360653
_cell_angle_alpha   89.99020921
_cell_angle_beta   90.00027892
_cell_angle_gamma   90.01331377
_symmetry_Int_Tables_number   1
_chemical_formula_structural   KI
_chemical_formula_sum   'K4 I4'
_cell_volume   374.81605137
_cell_formula_units_Z   4
loop_
 _symmetry_equiv_pos_site_id
 _symmetry_equiv_pos_as_xyz
  1  'x, y, z'
loop_
 _atom_site_type_symbol
 _atom_site_label
 _atom_site_symmetry_multiplicity
 _atom_site_fract_x
 _atom_site_fract_y
 _atom_site_fract_z
 _atom_site_occupancy
  K  K0  1  0.91713212  0.25277981  0.52309351  1
  K  K1  1  0.41713817  0.74713873  0.52309161  1
  K  K2  1  0.08287246  0.74725233  0.02307124  1
  K  K3  1  0.58286295  0.25283757  0.02311603  1
  I  I4  1  0.24966852  0.24672324  0.27282584  1
  I  I5  1  0.74968316  0.75322852  0.27278327  1
  I  I6  1  0.75032421  0.75325683  0.77280376  1
  I  I7  1  0.25031841  0.24678296  0.77282898  1
