# generated using pymatgen
data_LiBr
_symmetry_space_group_name_H-M   'P 1'
_cell_length_a   7.04013840
_cell_length_b   4.38309470
_cell_length_c   7.05577395
_cell_angle_alpha   89.99984707
_cell_angle_beta   89.99993641
_cell_angle_gamma   89.99978287
_symmetry_Int_Tables_number   1
_chemical_formula_structural   LiBr
_chemical_formula_sum   'Li4 Br4'
_cell_volume   217.72420300
_cell_formula_units_Z   4
loop_
 _symmetry_equiv_pos_site_id
 _symmetry_equiv_pos_as_xyz
  1  'x, y, z'
loop_
 _atom_site_type_symbol
 _atom_site_label
 _atom_site_symmetry_multiplicity
 _atom_site_fract_x
 _atom_site_fract_y
 _atom_site_fract_z
 _atom_site_occupancy
  Li  Li0  1  0.15065063  0.25631882  0.15374436  1
  Li  Li1  1  0.84936351  0.75628490  0.34624456  1
  Li  Li2  1  0.34934804  0.74368122  0.65374234  1
  Li  Li3  1  0.65064008  0.24371403  0.84624632  1
  Br  Br4  1  0.71671273  0.74439032  0.67578889  1
  Br  Br5  1  0.28325979  0.24434971  -0.17577943  1
  Br  Br6  1  0.78328448  0.25560818  0.17579153  1
  Br  Br7  1  0.21674074  0.75565282  0.32422142  1
