# generated using pymatgen
data_LiBr
_symmetry_space_group_name_H-M   'P 1'
_cell_length_a   6.19742830
_cell_length_b   5.21963267
_cell_length_c   6.18838618
_cell_angle_alpha   89.99971538
_cell_angle_beta   90.00540108
_cell_angle_gamma   89.99999429
_symmetry_Int_Tables_number   1
_chemical_formula_structural   LiBr
_chemical_formula_sum   'Li4 Br4'
_cell_volume   200.18376701
_cell_formula_units_Z   4
loop_
 _symmetry_equiv_pos_site_id
 _symmetry_equiv_pos_as_xyz
  1  'x, y, z'
loop_
 _atom_site_type_symbol
 _atom_site_label
 _atom_site_symmetry_multiplicity
 _atom_site_fract_x
 _atom_site_fract_y
 _atom_site_fract_z
 _atom_site_occupancy
  Li  Li0  1  0.75047150  0.24975969  0.75084843  1
  Li  Li1  1  0.24952917  0.74975924  0.74915069  1
  Li  Li2  1  0.74952852  0.75022297  0.25085221  1
  Li  Li3  1  0.25047206  0.25022303  0.24914847  1
  Br  Br4  1  0.49943465  0.00099858  0.50041872  1
  Br  Br5  1  0.50056474  0.50099873  -0.00041971  1
  Br  Br6  1  0.00056540  -0.00098120  0.00041886  1
  Br  Br7  1  0.99943396  0.49901895  0.49958232  1
