# generated using pymatgen
data_LiI
_symmetry_space_group_name_H-M   'P 1'
_cell_length_a   10.05958446
_cell_length_b   10.05849647
_cell_length_c   11.37983312
_cell_angle_alpha   89.99994947
_cell_angle_beta   90.00028328
_cell_angle_gamma   90.00083560
_symmetry_Int_Tables_number   1
_chemical_formula_structural   LiI
_chemical_formula_sum   'Li16 I16'
_cell_volume   1151.46038784
_cell_formula_units_Z   16
loop_
 _symmetry_equiv_pos_site_id
 _symmetry_equiv_pos_as_xyz
  1  'x, y, z'
loop_
 _atom_site_type_symbol
 _atom_site_label
 _atom_site_symmetry_multiplicity
 _atom_site_fract_x
 _atom_site_fract_y
 _atom_site_fract_z
 _atom_site_occupancy
  Li  Li0  1  0.84427364  0.54603873  0.00139634  1
  Li  Li1  1  0.95395771  0.34426280  0.49862209  1
  Li  Li2  1  0.84428067  0.04603297  0.24860432  1
  Li  Li3  1  0.15570632  0.45397407  0.00140208  1
  Li  Li4  1  0.04604902  0.65573387  0.49861040  1
  Li  Li5  1  0.45395301  0.34426338  0.25138417  1
  Li  Li6  1  0.54604425  0.65573599  0.25138288  1
  Li  Li7  1  0.95395374  0.84425519  0.75137612  1
  Li  Li8  1  0.04604506  0.15573040  0.75139137  1
  Li  Li9  1  0.65571591  0.95396834  0.50139487  1
  Li  Li10  1  0.54604579  0.15573778  -0.00138302  1
  Li  Li11  1  0.34428391  0.04603152  0.50139866  1
  Li  Li12  1  0.45395527  0.84426821  -0.00138676  1
  Li  Li13  1  0.34428718  0.54602601  0.74860630  1
  Li  Li14  1  0.65572565  0.45396372  0.74860380  1
  Li  Li15  1  0.15571913  0.95397169  0.24860210  1
  I  I16  1  0.45037173  0.30191778  0.81990487  1
  I  I17  1  0.19805042  0.95033890  0.68006799  1
  I  I18  1  0.45036184  0.80192371  0.43008763  1
  I  I19  1  0.54963857  0.69807171  0.81991481  1
  I  I20  1  0.80195091  0.04965490  0.68006629  1
  I  I21  1  0.69804920  0.95034372  0.06993308  1
  I  I22  1  0.30195007  0.04966057  0.06993176  1
  I  I23  1  0.19805459  0.45034260  0.56993273  1
  I  I24  1  0.80195339  0.54966182  0.56993299  1
  I  I25  1  0.04963375  0.19807785  0.31991174  1
  I  I26  1  0.30194797  0.54965595  0.18006827  1
  I  I27  1  0.95036608  0.80192678  0.31990892  1
  I  I28  1  0.69804885  0.45034237  0.18006912  1
  I  I29  1  0.95035507  0.30193180  0.93008399  1
  I  I30  1  0.04963272  0.69807912  0.93009136  1
  I  I31  1  0.54963857  0.19807574  0.43008874  1
