# generated using pymatgen
data_LiBr
_symmetry_space_group_name_H-M   'P 1'
_cell_length_a   7.73404492
_cell_length_b   5.51636230
_cell_length_c   3.89948816
_cell_angle_alpha   90.00000026
_cell_angle_beta   89.99976082
_cell_angle_gamma   90.00000030
_symmetry_Int_Tables_number   1
_chemical_formula_structural   LiBr
_chemical_formula_sum   'Li4 Br4'
_cell_volume   166.36695893
_cell_formula_units_Z   4
loop_
 _symmetry_equiv_pos_site_id
 _symmetry_equiv_pos_as_xyz
  1  'x, y, z'
loop_
 _atom_site_type_symbol
 _atom_site_label
 _atom_site_symmetry_multiplicity
 _atom_site_fract_x
 _atom_site_fract_y
 _atom_site_fract_z
 _atom_site_occupancy
  Li  Li0  1  0.37578287  0.74803250  0.49437903  1
  Li  Li1  1  0.87578329  0.75196654  0.49437920  1
  Li  Li2  1  0.62421695  0.25196773  0.99438608  1
  Li  Li3  1  0.12421734  0.24803266  0.99438587  1
  Br  Br4  1  0.12514463  0.75059604  -0.00459678  1
  Br  Br5  1  0.62514389  0.74940423  -0.00459657  1
  Br  Br6  1  0.87485580  0.24940426  0.49540605  1
  Br  Br7  1  0.37485523  0.25059604  0.49540600  1
