# generated using pymatgen
data_NaBr
_symmetry_space_group_name_H-M   'P 1'
_cell_length_a   4.20522409
_cell_length_b   7.26615047
_cell_length_c   8.34788352
_cell_angle_alpha   90.00003912
_cell_angle_beta   120.18126398
_cell_angle_gamma   90.00000658
_symmetry_Int_Tables_number   1
_chemical_formula_structural   NaBr
_chemical_formula_sum   'Na4 Br4'
_cell_volume   220.49786446
_cell_formula_units_Z   4
loop_
 _symmetry_equiv_pos_site_id
 _symmetry_equiv_pos_as_xyz
  1  'x, y, z'
loop_
 _atom_site_type_symbol
 _atom_site_label
 _atom_site_symmetry_multiplicity
 _atom_site_fract_x
 _atom_site_fract_y
 _atom_site_fract_z
 _atom_site_occupancy
  Na  Na0  1  0.60432256  0.75078555  0.37882539  1
  Na  Na1  1  0.10432182  0.25078578  0.37882591  1
  Na  Na2  1  0.60432384  0.24921414  0.87882691  1
  Na  Na3  1  0.10432358  0.74921451  0.87882642  1
  Br  Br4  1  0.85445506  0.58280848  0.12895929  1
  Br  Br5  1  0.35445524  0.08280845  0.12895969  1
  Br  Br6  1  0.85445379  0.41719152  0.62895921  1
  Br  Br7  1  0.35445407  0.91719157  0.62895894  1
