# generated using pymatgen
data_LiI
_symmetry_space_group_name_H-M   'P 1'
_cell_length_a   10.75297262
_cell_length_b   10.75186817
_cell_length_c   4.61627128
_cell_angle_alpha   90.00008009
_cell_angle_beta   90.00044086
_cell_angle_gamma   120.01953673
_symmetry_Int_Tables_number   1
_chemical_formula_structural   LiI
_chemical_formula_sum   'Li6 I6'
_cell_volume   462.11375299
_cell_formula_units_Z   6
loop_
 _symmetry_equiv_pos_site_id
 _symmetry_equiv_pos_as_xyz
  1  'x, y, z'
loop_
 _atom_site_type_symbol
 _atom_site_label
 _atom_site_symmetry_multiplicity
 _atom_site_fract_x
 _atom_site_fract_y
 _atom_site_fract_z
 _atom_site_occupancy
  Li  Li0  1  0.57953434  0.44757097  0.59982859  1
  Li  Li1  1  0.13196401  0.57938650  0.76632584  1
  Li  Li2  1  0.86803474  0.42061266  0.26632161  1
  Li  Li3  1  0.44746676  0.86801100  0.43303621  1
  Li  Li4  1  0.55253342  0.13198891  0.93303698  1
  Li  Li5  1  0.42046524  0.55242896  0.09982595  1
  I  I6  1  0.86564249  0.56229944  0.76329919  1
  I  I7  1  0.30337085  0.86553305  -0.07000043  1
  I  I8  1  0.69663024  0.13446716  0.43000943  1
  I  I9  1  0.56216354  0.69664089  0.59677901  1
  I  I10  1  0.43783661  0.30335958  0.09676725  1
  I  I11  1  0.13435775  0.43770087  0.26329658  1
