# generated using pymatgen
data_LiBr
_symmetry_space_group_name_H-M   'P 1'
_cell_length_a   11.02965992
_cell_length_b   5.50852938
_cell_length_c   5.49066239
_cell_angle_alpha   89.99998530
_cell_angle_beta   89.99998579
_cell_angle_gamma   90.00000240
_symmetry_Int_Tables_number   1
_chemical_formula_structural   LiBr
_chemical_formula_sum   'Li8 Br8'
_cell_volume   333.59730437
_cell_formula_units_Z   8
loop_
 _symmetry_equiv_pos_site_id
 _symmetry_equiv_pos_as_xyz
  1  'x, y, z'
loop_
 _atom_site_type_symbol
 _atom_site_label
 _atom_site_symmetry_multiplicity
 _atom_site_fract_x
 _atom_site_fract_y
 _atom_site_fract_z
 _atom_site_occupancy
  Li  Li0  1  0.12451436  0.00133004  0.25211022  1
  Li  Li1  1  0.12451265  0.49867356  0.75211214  1
  Li  Li2  1  0.62451306  0.49867087  0.74788895  1
  Li  Li3  1  0.37548794  -0.00132997  0.75211375  1
  Li  Li4  1  0.87548588  0.50133083  0.24788694  1
  Li  Li5  1  0.37548576  0.50133089  0.25211436  1
  Li  Li6  1  0.62451330  0.00132735  0.24788185  1
  Li  Li7  1  0.87548722  -0.00133347  0.74789145  1
  Br  Br8  1  0.62513005  0.49998846  0.24863516  1
  Br  Br9  1  0.62513056  0.00000979  0.74863455  1
  Br  Br10  1  0.12513050  0.00001204  0.75136425  1
  Br  Br11  1  0.87486928  0.50000907  0.74863551  1
  Br  Br12  1  0.37487018  -0.00000964  0.25136522  1
  Br  Br13  1  0.87486958  -0.00001068  0.24863561  1
  Br  Br14  1  0.12512991  0.49999016  0.25136466  1
  Br  Br15  1  0.37486978  0.50001071  0.75136537  1
