# generated using pymatgen
data_LiBr
_symmetry_space_group_name_H-M   'P 1'
_cell_length_a   7.32476933
_cell_length_b   6.94589694
_cell_length_c   8.36953287
_cell_angle_alpha   89.99983174
_cell_angle_beta   89.99985693
_cell_angle_gamma   89.99987375
_symmetry_Int_Tables_number   1
_chemical_formula_structural   LiBr
_chemical_formula_sum   'Li8 Br8'
_cell_volume   425.81750077
_cell_formula_units_Z   8
loop_
 _symmetry_equiv_pos_site_id
 _symmetry_equiv_pos_as_xyz
  1  'x, y, z'
loop_
 _atom_site_type_symbol
 _atom_site_label
 _atom_site_symmetry_multiplicity
 _atom_site_fract_x
 _atom_site_fract_y
 _atom_site_fract_z
 _atom_site_occupancy
  Li  Li0  1  0.58441641  0.66477022  0.13112984  1
  Li  Li1  1  0.58441582  0.83522251  0.63112574  1
  Li  Li2  1  0.08441794  0.83523053  0.86886998  1
  Li  Li3  1  0.91558274  0.33522883  0.63113029  1
  Li  Li4  1  0.41558420  0.16477894  0.36887463  1
  Li  Li5  1  0.91558155  0.16476892  0.13113011  1
  Li  Li6  1  0.08441779  0.66477060  0.36886947  1
  Li  Li7  1  0.41558374  0.33522936  0.86887026  1
  Br  Br8  1  0.90796894  0.79418333  0.13124331  1
  Br  Br9  1  0.90797065  0.70581483  0.63124450  1
  Br  Br10  1  0.40796962  0.70581468  0.86875516  1
  Br  Br11  1  0.59203117  0.20581347  0.63124541  1
  Br  Br12  1  0.09202919  0.29418490  0.36875533  1
  Br  Br13  1  0.59203026  0.29418523  0.13124478  1
  Br  Br14  1  0.40796897  0.79418738  0.36875437  1
  Br  Br15  1  0.09203102  0.20581629  0.86875683  1
