# generated using pymatgen
data_LiI
_symmetry_space_group_name_H-M   'P 1'
_cell_length_a   7.82326787
_cell_length_b   4.61182247
_cell_length_c   7.68770678
_cell_angle_alpha   90.00005924
_cell_angle_beta   72.80047718
_cell_angle_gamma   89.99989068
_symmetry_Int_Tables_number   1
_chemical_formula_structural   LiI
_chemical_formula_sum   'Li4 I4'
_cell_volume   264.96508678
_cell_formula_units_Z   4
loop_
 _symmetry_equiv_pos_site_id
 _symmetry_equiv_pos_as_xyz
  1  'x, y, z'
loop_
 _atom_site_type_symbol
 _atom_site_label
 _atom_site_symmetry_multiplicity
 _atom_site_fract_x
 _atom_site_fract_y
 _atom_site_fract_z
 _atom_site_occupancy
  Li  Li0  1  0.84903624  0.74876444  0.92361471  1
  Li  Li1  1  0.34903623  0.24876537  0.92361706  1
  Li  Li2  1  0.84903800  0.25123572  0.42361448  1
  Li  Li3  1  0.34903769  0.75123431  0.42361708  1
  I  I4  1  0.97608019  0.75137849  0.54611630  1
  I  I5  1  0.47608014  0.25137769  0.54611754  1
  I  I6  1  0.97607867  0.24862172  0.04611623  1
  I  I7  1  0.47607845  0.74862227  0.04611764  1
