# generated using pymatgen
data_LiBr
_symmetry_space_group_name_H-M   'P 1'
_cell_length_a   10.27100413
_cell_length_b   10.27395066
_cell_length_c   8.01607902
_cell_angle_alpha   90.00005233
_cell_angle_beta   90.00003807
_cell_angle_gamma   90.00014881
_symmetry_Int_Tables_number   1
_chemical_formula_structural   LiBr
_chemical_formula_sum   'Li16 Br16'
_cell_volume   845.88703730
_cell_formula_units_Z   16
loop_
 _symmetry_equiv_pos_site_id
 _symmetry_equiv_pos_as_xyz
  1  'x, y, z'
loop_
 _atom_site_type_symbol
 _atom_site_label
 _atom_site_symmetry_multiplicity
 _atom_site_fract_x
 _atom_site_fract_y
 _atom_site_fract_z
 _atom_site_occupancy
  Li  Li0  1  0.99999504  0.33337941  0.28245946  1
  Li  Li1  1  0.83339772  0.99994186  0.53040596  1
  Li  Li2  1  0.00000500  0.33337958  0.78245945  1
  Li  Li3  1  0.00000208  0.66662094  0.28245826  1
  Li  Li4  1  0.16660184  0.00005717  0.53040431  1
  Li  Li5  1  0.66660274  0.49994230  0.53040490  1
  Li  Li6  1  0.33339765  0.50005686  0.53040566  1
  Li  Li7  1  0.16660283  0.99994404  0.03040423  1
  Li  Li8  1  0.83339722  0.00005628  0.03040533  1
  Li  Li9  1  0.50000515  0.16661972  0.78245810  1
  Li  Li10  1  0.66660225  0.50005672  0.03040397  1
  Li  Li11  1  0.49999230  0.83338030  0.78245886  1
  Li  Li12  1  0.33339763  0.49994281  0.03040572  1
  Li  Li13  1  0.50000534  0.83338029  0.28245909  1
  Li  Li14  1  0.49999799  0.16662183  0.28245830  1
  Li  Li15  1  0.99999756  0.66662190  0.78245868  1
  Br  Br16  1  0.00008448  0.81385245  0.53199555  1
  Br  Br17  1  0.31384576  0.00008496  0.78087235  1
  Br  Br18  1  0.99991403  0.81385330  0.03199609  1
  Br  Br19  1  0.99991465  0.18614678  0.53199583  1
  Br  Br20  1  0.68615417  0.99991421  0.78087225  1
  Br  Br21  1  0.18615432  0.50008619  0.78087222  1
  Br  Br22  1  0.81384582  0.49991384  0.78087297  1
  Br  Br23  1  0.68615424  0.00008644  0.28087224  1
  Br  Br24  1  0.31384599  0.99991448  0.28087297  1
  Br  Br25  1  0.49991520  0.68614692  0.03199556  1
  Br  Br26  1  0.18615433  0.49991463  0.28087209  1
  Br  Br27  1  0.50008455  0.31385276  0.03199518  1
  Br  Br28  1  0.81384547  0.50008431  0.28087260  1
  Br  Br29  1  0.49991461  0.31385284  0.53199596  1
  Br  Br30  1  0.50008596  0.68614662  0.53199485  1
  Br  Br31  1  0.00008611  0.18614725  0.03199557  1
