# generated using pymatgen
data_LiI
_symmetry_space_group_name_H-M   'P 1'
_cell_length_a   9.41766733
_cell_length_b   4.71469210
_cell_length_c   5.92009226
_cell_angle_alpha   89.99984909
_cell_angle_beta   90.00017496
_cell_angle_gamma   89.99999217
_symmetry_Int_Tables_number   1
_chemical_formula_structural   LiI
_chemical_formula_sum   'Li4 I4'
_cell_volume   262.86039493
_cell_formula_units_Z   4
loop_
 _symmetry_equiv_pos_site_id
 _symmetry_equiv_pos_as_xyz
  1  'x, y, z'
loop_
 _atom_site_type_symbol
 _atom_site_label
 _atom_site_symmetry_multiplicity
 _atom_site_fract_x
 _atom_site_fract_y
 _atom_site_fract_z
 _atom_site_occupancy
  Li  Li0  1  0.12474117  0.24797419  0.50412979  1
  Li  Li1  1  0.62474086  0.25202532  0.50413018  1
  Li  Li2  1  0.87525948  0.75202346  0.00413177  1
  Li  Li3  1  0.37525960  0.74797754  0.00413226  1
  I  I4  1  0.37463699  0.24779969  0.75450852  1
  I  I5  1  0.87463689  0.25220008  0.75450870  1
  I  I6  1  0.62536246  0.75220063  0.25450848  1
  I  I7  1  0.12536255  0.74779909  0.25450868  1
