# generated using pymatgen
data_LiBr
_symmetry_space_group_name_H-M   'P 1'
_cell_length_a   10.17902394
_cell_length_b   11.01609099
_cell_length_c   8.70479938
_cell_angle_alpha   89.99991386
_cell_angle_beta   90.00000160
_cell_angle_gamma   89.97262297
_symmetry_Int_Tables_number   1
_chemical_formula_structural   LiBr
_chemical_formula_sum   'Li16 Br16'
_cell_volume   976.09562706
_cell_formula_units_Z   16
loop_
 _symmetry_equiv_pos_site_id
 _symmetry_equiv_pos_as_xyz
  1  'x, y, z'
loop_
 _atom_site_type_symbol
 _atom_site_label
 _atom_site_symmetry_multiplicity
 _atom_site_fract_x
 _atom_site_fract_y
 _atom_site_fract_z
 _atom_site_occupancy
  Li  Li0  1  0.74994152  0.39640423  0.88825648  1
  Li  Li1  1  0.25005659  0.60359676  0.88825623  1
  Li  Li2  1  0.49991201  0.64634037  0.13820525  1
  Li  Li3  1  0.75005811  0.60359531  0.38825486  1
  Li  Li4  1  -0.00008919  0.64633988  0.63820724  1
  Li  Li5  1  0.00008925  0.85366031  0.13820689  1
  Li  Li6  1  0.24994122  0.39640426  0.38825707  1
  Li  Li7  1  -0.00008772  0.14634054  0.13820673  1
  Li  Li8  1  0.00008980  0.35365999  0.63820635  1
  Li  Li9  1  0.24994100  0.89640400  0.88825657  1
  Li  Li10  1  0.75005907  0.10359516  0.88825470  1
  Li  Li11  1  0.49991285  0.14634082  0.63820533  1
  Li  Li12  1  0.50008785  0.85365898  0.63820454  1
  Li  Li13  1  0.50008804  0.35365964  0.13820413  1
  Li  Li14  1  0.74994182  0.89640402  0.38825637  1
  Li  Li15  1  0.25005822  0.10359616  0.38825535  1
  Br  Br16  1  0.30416304  0.49997282  0.13786463  1
  Br  Br17  1  0.69583674  0.50002717  0.13786312  1
  Br  Br18  1  0.94582907  0.74993404  0.38782174  1
  Br  Br19  1  0.19583683  0.50002825  0.63786449  1
  Br  Br20  1  0.44582760  0.74993440  0.88782044  1
  Br  Br21  1  0.55417058  0.75006511  0.38782021  1
  Br  Br22  1  0.80416349  0.49997143  0.63786372  1
  Br  Br23  1  0.44582886  0.24993473  0.38782060  1
  Br  Br24  1  0.55417130  0.25006477  0.88782038  1
  Br  Br25  1  0.80416434  -0.00002726  0.13786447  1
  Br  Br26  1  0.19583742  0.00002774  0.13786395  1
  Br  Br27  1  0.94582957  0.24993470  0.88782179  1
  Br  Br28  1  0.05416933  0.75006629  0.88782143  1
  Br  Br29  1  0.05417077  0.25006543  0.38782205  1
  Br  Br30  1  0.30416371  -0.00002655  0.63786452  1
  Br  Br31  1  0.69583689  0.00002653  0.63786355  1
