# generated using pymatgen
data_LiBr
_symmetry_space_group_name_H-M   'P 1'
_cell_length_a   3.77308061
_cell_length_b   14.26948762
_cell_length_c   3.76548039
_cell_angle_alpha   90.01195337
_cell_angle_beta   90.00031191
_cell_angle_gamma   90.00025988
_symmetry_Int_Tables_number   1
_chemical_formula_structural   LiBr
_chemical_formula_sum   'Li4 Br4'
_cell_volume   202.73318466
_cell_formula_units_Z   4
loop_
 _symmetry_equiv_pos_site_id
 _symmetry_equiv_pos_as_xyz
  1  'x, y, z'
loop_
 _atom_site_type_symbol
 _atom_site_label
 _atom_site_symmetry_multiplicity
 _atom_site_fract_x
 _atom_site_fract_y
 _atom_site_fract_z
 _atom_site_occupancy
  Li  Li0  1  0.24741742  0.92184718  0.40122580  1
  Li  Li1  1  0.74741559  0.57815305  0.40134408  1
  Li  Li2  1  0.75258891  0.07815238  0.90134352  1
  Li  Li3  1  0.25258355  0.42184713  0.90123079  1
  Br  Br4  1  0.75164664  0.39542358  0.40334652  1
  Br  Br5  1  0.25165301  0.10457629  0.40350409  1
  Br  Br6  1  0.24834753  0.60457677  0.90350303  1
  Br  Br7  1  0.74834735  0.89542363  0.90333993  1
