# generated using pymatgen
data_LiBr
_symmetry_space_group_name_H-M   'P 1'
_cell_length_a   5.51952598
_cell_length_b   5.49540311
_cell_length_c   5.50019113
_cell_angle_alpha   89.99996594
_cell_angle_beta   90.00007517
_cell_angle_gamma   89.99998521
_symmetry_Int_Tables_number   1
_chemical_formula_structural   LiBr
_chemical_formula_sum   'Li4 Br4'
_cell_volume   166.83190837
_cell_formula_units_Z   4
loop_
 _symmetry_equiv_pos_site_id
 _symmetry_equiv_pos_as_xyz
  1  'x, y, z'
loop_
 _atom_site_type_symbol
 _atom_site_label
 _atom_site_symmetry_multiplicity
 _atom_site_fract_x
 _atom_site_fract_y
 _atom_site_fract_z
 _atom_site_occupancy
  Li  Li0  1  0.50249724  0.24952969  0.32575036  1
  Li  Li1  1  0.00249721  0.75047030  0.32575162  1
  Li  Li2  1  0.49750405  0.75046989  0.82575128  1
  Li  Li3  1  -0.00249594  0.24953002  0.82574988  1
  Br  Br4  1  0.49946886  0.24966928  0.82501128  1
  Br  Br5  1  -0.00053105  0.75033092  0.82501112  1
  Br  Br6  1  0.50052978  0.75033108  0.32501122  1
  Br  Br7  1  0.00052985  0.24966882  0.32501111  1
