# generated using pymatgen
data_LiBr
_symmetry_space_group_name_H-M   'P 1'
_cell_length_a   7.23029097
_cell_length_b   4.32848219
_cell_length_c   6.92748845
_cell_angle_alpha   89.99997349
_cell_angle_beta   90.00005366
_cell_angle_gamma   89.99980710
_symmetry_Int_Tables_number   1
_chemical_formula_structural   LiBr
_chemical_formula_sum   'Li4 Br4'
_cell_volume   216.80396482
_cell_formula_units_Z   4
loop_
 _symmetry_equiv_pos_site_id
 _symmetry_equiv_pos_as_xyz
  1  'x, y, z'
loop_
 _atom_site_type_symbol
 _atom_site_label
 _atom_site_symmetry_multiplicity
 _atom_site_fract_x
 _atom_site_fract_y
 _atom_site_fract_z
 _atom_site_occupancy
  Li  Li0  1  0.59596600  -0.00232160  0.09757462  1
  Li  Li1  1  0.40403390  0.49767719  0.40242347  1
  Li  Li2  1  0.90403299  0.00232253  0.59759607  1
  Li  Li3  1  0.09596635  0.50232225  0.90240506  1
  Br  Br4  1  0.57764804  -0.00195968  0.47059905  1
  Br  Br5  1  0.42235202  0.49804115  0.02939929  1
  Br  Br6  1  0.92236617  0.00195855  0.97061140  1
  Br  Br7  1  0.07763454  0.50195960  0.52939104  1
