# generated using pymatgen
data_LiBr
_symmetry_space_group_name_H-M   'P 1'
_cell_length_a   11.05396026
_cell_length_b   5.53413577
_cell_length_c   5.43271524
_cell_angle_alpha   89.99999831
_cell_angle_beta   89.99999926
_cell_angle_gamma   90.00000003
_symmetry_Int_Tables_number   1
_chemical_formula_structural   LiBr
_chemical_formula_sum   'Li8 Br8'
_cell_volume   332.34155666
_cell_formula_units_Z   8
loop_
 _symmetry_equiv_pos_site_id
 _symmetry_equiv_pos_as_xyz
  1  'x, y, z'
loop_
 _atom_site_type_symbol
 _atom_site_label
 _atom_site_symmetry_multiplicity
 _atom_site_fract_x
 _atom_site_fract_y
 _atom_site_fract_z
 _atom_site_occupancy
  Li  Li0  1  0.87537763  0.00053660  0.75016682  1
  Li  Li1  1  0.87538157  0.49946311  0.25017133  1
  Li  Li2  1  0.37537994  -0.00053629  0.74983365  1
  Li  Li3  1  0.62461826  0.49946565  0.75016284  1
  Li  Li4  1  0.12462112  0.50053541  0.74983195  1
  Li  Li5  1  0.62462063  0.00053745  0.25017114  1
  Li  Li6  1  0.37538091  0.50053587  0.24983553  1
  Li  Li7  1  0.12462017  -0.00053665  0.24982677  1
  Br  Br8  1  0.62507163  0.49999468  0.25031265  1
  Br  Br9  1  0.62507090  0.00000548  0.75031321  1
  Br  Br10  1  0.12507211  0.50000532  0.24968744  1
  Br  Br11  1  0.87492825  0.00000491  0.25031321  1
  Br  Br12  1  0.37492850  -0.00000535  0.24968631  1
  Br  Br13  1  0.87492815  0.49999402  0.75031387  1
  Br  Br14  1  0.12507163  -0.00000562  0.74968628  1
  Br  Br15  1  0.37492859  0.50000543  0.74968700  1
