# generated using pymatgen
data_NaBr
_symmetry_space_group_name_H-M   'P 1'
_cell_length_a   8.38768531
_cell_length_b   8.39329381
_cell_length_c   14.28259929
_cell_angle_alpha   90.00007227
_cell_angle_beta   90.00003367
_cell_angle_gamma   89.99998667
_symmetry_Int_Tables_number   1
_chemical_formula_structural   NaBr
_chemical_formula_sum   'Na16 Br16'
_cell_volume   1005.49937825
_cell_formula_units_Z   16
loop_
 _symmetry_equiv_pos_site_id
 _symmetry_equiv_pos_as_xyz
  1  'x, y, z'
loop_
 _atom_site_type_symbol
 _atom_site_label
 _atom_site_symmetry_multiplicity
 _atom_site_fract_x
 _atom_site_fract_y
 _atom_site_fract_z
 _atom_site_occupancy
  Na  Na0  1  0.38341689  0.81734531  0.32051614  1
  Na  Na1  1  0.31620373  0.38400096  0.57100996  1
  Na  Na2  1  0.61658258  0.81734506  0.82051793  1
  Na  Na3  1  0.61658208  0.18265484  0.32051985  1
  Na  Na4  1  0.68379612  0.61600077  0.57101004  1
  Na  Na5  1  0.18379594  0.88399943  0.57101028  1
  Na  Na6  1  0.81620421  0.11599948  0.57100963  1
  Na  Na7  1  0.68379598  0.38399944  0.07101031  1
  Na  Na8  1  0.31620413  0.61599942  0.07100960  1
  Na  Na9  1  0.11658198  0.68265470  0.82051963  1
  Na  Na10  1  0.18379627  0.11600076  0.07101010  1
  Na  Na11  1  0.88341699  0.31734511  0.82051657  1
  Na  Na12  1  0.81620379  0.88400106  0.07100987  1
  Na  Na13  1  0.11658237  0.31734502  0.32051855  1
  Na  Na14  1  0.88341685  0.68265474  0.32051595  1
  Na  Na15  1  0.38341705  0.18265482  0.82051640  1
  Br  Br16  1  0.69962066  0.89134839  0.43166365  1
  Br  Br17  1  0.39235432  0.69950799  0.68181269  1
  Br  Br18  1  0.30038048  0.89134933  0.93166400  1
  Br  Br19  1  0.30038041  0.10865035  0.43166406  1
  Br  Br20  1  0.60764541  0.30049164  0.68181181  1
  Br  Br21  1  0.10764547  0.19950850  0.68181197  1
  Br  Br22  1  0.89235450  0.80049180  0.68181277  1
  Br  Br23  1  0.60764551  0.69950852  0.18181185  1
  Br  Br24  1  0.39235453  0.30049187  0.18181290  1
  Br  Br25  1  0.80038017  0.60865043  0.93166391  1
  Br  Br26  1  0.10764543  0.80049170  0.18181174  1
  Br  Br27  1  0.19962042  0.39134837  0.93166379  1
  Br  Br28  1  0.89235445  0.19950809  0.18181275  1
  Br  Br29  1  0.80038079  0.39134947  0.43166406  1
  Br  Br30  1  0.19962046  0.60865138  0.43166345  1
  Br  Br31  1  0.69962006  0.10865122  0.93166354  1
