# generated using pymatgen
data_NaBr
_symmetry_space_group_name_H-M   'P 1'
_cell_length_a   7.38946402
_cell_length_b   4.26670916
_cell_length_c   8.50962379
_cell_angle_alpha   90.00011486
_cell_angle_beta   125.19412060
_cell_angle_gamma   89.99973006
_symmetry_Int_Tables_number   1
_chemical_formula_structural   NaBr
_chemical_formula_sum   'Na4 Br4'
_cell_volume   219.25365767
_cell_formula_units_Z   4
loop_
 _symmetry_equiv_pos_site_id
 _symmetry_equiv_pos_as_xyz
  1  'x, y, z'
loop_
 _atom_site_type_symbol
 _atom_site_label
 _atom_site_symmetry_multiplicity
 _atom_site_fract_x
 _atom_site_fract_y
 _atom_site_fract_z
 _atom_site_occupancy
  Na  Na0  1  0.75000014  0.74996170  0.75207519  1
  Na  Na1  1  0.24999885  0.24996121  0.74792497  1
  Na  Na2  1  0.24999996  0.25003834  0.24792488  1
  Na  Na3  1  0.75000110  0.75003885  0.25207499  1
  Br  Br4  1  0.25042297  0.74993708  0.49878976  1
  Br  Br5  1  0.74957699  0.24993760  0.00121025  1
  Br  Br6  1  0.74957692  0.25006288  0.50121024  1
  Br  Br7  1  0.25042306  0.75006236  -0.00121028  1
