# generated using pymatgen
data_NaI
_symmetry_space_group_name_H-M   'P 1'
_cell_length_a   17.60837092
_cell_length_b   17.60816743
_cell_length_c   4.74558373
_cell_angle_alpha   89.99987103
_cell_angle_beta   90.00073951
_cell_angle_gamma   89.99978053
_symmetry_Int_Tables_number   1
_chemical_formula_structural   NaI
_chemical_formula_sum   'Na16 I16'
_cell_volume   1471.37366112
_cell_formula_units_Z   16
loop_
 _symmetry_equiv_pos_site_id
 _symmetry_equiv_pos_as_xyz
  1  'x, y, z'
loop_
 _atom_site_type_symbol
 _atom_site_label
 _atom_site_symmetry_multiplicity
 _atom_site_fract_x
 _atom_site_fract_y
 _atom_site_fract_z
 _atom_site_occupancy
  Na  Na0  1  0.66744084  0.91308173  -0.05236788  1
  Na  Na1  1  0.58691721  0.16743991  0.55238087  1
  Na  Na2  1  0.66741180  0.41303968  0.30205470  1
  Na  Na3  1  0.33256087  0.08691678  -0.05240415  1
  Na  Na4  1  0.41308229  0.83256043  0.55239537  1
  Na  Na5  1  0.08696120  0.16741233  0.19795769  1
  Na  Na6  1  0.91303949  0.83258767  0.19797158  1
  Na  Na7  1  0.58696120  0.66741231  0.69795730  1
  Na  Na8  1  0.41303952  0.33258769  0.69797158  1
  Na  Na9  1  0.83256086  0.58691686  0.44759611  1
  Na  Na10  1  0.91308233  0.33256038  0.05239568  1
  Na  Na11  1  0.16744081  0.41308170  0.44763232  1
  Na  Na12  1  0.08691714  0.66743999  0.05238074  1
  Na  Na13  1  0.16741177  0.91303981  0.80205465  1
  Na  Na14  1  0.83258655  0.08696182  0.80201175  1
  Na  Na15  1  0.33258651  0.58696183  0.30201178  1
  I  I16  1  0.91285569  0.16686373  0.30006286  1
  I  I17  1  0.33313315  0.41285347  0.19992436  1
  I  I18  1  0.91285661  0.66689027  -0.05017228  1
  I  I19  1  0.08714440  0.83313420  0.30010196  1
  I  I20  1  0.66686641  0.58714556  0.19990795  1
  I  I21  1  0.83310911  0.41285556  0.55016756  1
  I  I22  1  0.16689129  0.58714534  0.55015045  1
  I  I23  1  0.33310908  0.91285556  0.05016723  1
  I  I24  1  0.66689137  0.08714533  0.05015065  1
  I  I25  1  0.58714446  0.33313413  0.80010207  1
  I  I26  1  0.16686645  0.08714563  0.69990841  1
  I  I27  1  0.41285568  0.66686373  0.80006284  1
  I  I28  1  0.83313317  0.91285347  0.69992432  1
  I  I29  1  0.41285668  0.16689027  0.44982758  1
  I  I30  1  0.58714302  0.83311142  0.44985690  1
  I  I31  1  0.08714303  0.33311143  -0.05014295  1
