# generated using pymatgen
data_LiBr
_symmetry_space_group_name_H-M   'P 1'
_cell_length_a   11.46121115
_cell_length_b   11.46121431
_cell_length_c   6.67012419
_cell_angle_alpha   90.00000586
_cell_angle_beta   90.00000811
_cell_angle_gamma   120.00415409
_symmetry_Int_Tables_number   1
_chemical_formula_structural   LiBr
_chemical_formula_sum   'Li12 Br12'
_cell_volume   758.76539813
_cell_formula_units_Z   12
loop_
 _symmetry_equiv_pos_site_id
 _symmetry_equiv_pos_as_xyz
  1  'x, y, z'
loop_
 _atom_site_type_symbol
 _atom_site_label
 _atom_site_symmetry_multiplicity
 _atom_site_fract_x
 _atom_site_fract_y
 _atom_site_fract_z
 _atom_site_occupancy
  Li  Li0  1  0.53798898  0.65714029  0.53978801  1
  Li  Li1  1  0.88086249  0.53799021  0.53977395  1
  Li  Li2  1  0.11912389  0.65713201  0.03978400  1
  Li  Li3  1  0.46201029  0.11913799  0.03977375  1
  Li  Li4  1  0.53798925  0.88086229  0.03977407  1
  Li  Li5  1  0.65714074  0.53798957  0.03978625  1
  Li  Li6  1  0.88087621  0.34286810  0.03978516  1
  Li  Li7  1  0.34285944  0.46201058  0.03978889  1
  Li  Li8  1  0.34286794  0.88087646  0.53978401  1
  Li  Li9  1  0.46201091  0.34285922  0.53978670  1
  Li  Li10  1  0.11913775  0.46200987  0.53977419  1
  Li  Li11  1  0.65713230  0.11912358  0.53978452  1
  Br  Br12  1  0.44534174  0.31869315  0.92029587  1
  Br  Br13  1  0.12665728  0.44536296  0.92028709  1
  Br  Br14  1  0.87334595  0.31869715  0.42028716  1
  Br  Br15  1  0.55463647  0.87334251  0.42028699  1
  Br  Br16  1  0.44536364  0.12665736  0.42028660  1
  Br  Br17  1  0.31869309  0.44534146  0.42029655  1
  Br  Br18  1  0.12665436  0.68130273  0.42028671  1
  Br  Br19  1  0.68130675  0.55465825  0.42029599  1
  Br  Br20  1  0.68130289  0.12665393  0.92028687  1
  Br  Br21  1  0.55465795  0.68130704  0.92029676  1
  Br  Br22  1  0.87334288  0.55463696  0.92028681  1
  Br  Br23  1  0.31869680  0.87334634  0.92028686  1
