# generated using pymatgen
data_LiBr
_symmetry_space_group_name_H-M   'P 1'
_cell_length_a   3.95478785
_cell_length_b   3.95479421
_cell_length_c   12.99743820
_cell_angle_alpha   89.99816820
_cell_angle_beta   90.00050911
_cell_angle_gamma   90.00180360
_symmetry_Int_Tables_number   1
_chemical_formula_structural   LiBr
_chemical_formula_sum   'Li4 Br4'
_cell_volume   203.28476922
_cell_formula_units_Z   4
loop_
 _symmetry_equiv_pos_site_id
 _symmetry_equiv_pos_as_xyz
  1  'x, y, z'
loop_
 _atom_site_type_symbol
 _atom_site_label
 _atom_site_symmetry_multiplicity
 _atom_site_fract_x
 _atom_site_fract_y
 _atom_site_fract_z
 _atom_site_occupancy
  Li  Li0  1  -0.00092321  0.00318561  0.27737841  1
  Li  Li1  1  0.00319443  0.00092580  0.52738516  1
  Li  Li2  1  0.00092532  0.99681375  0.77739896  1
  Li  Li3  1  0.99680886  -0.00092723  0.02739209  1
  Br  Br4  1  0.49858887  0.00452433  0.15243094  1
  Br  Br5  1  0.00451880  0.50141083  0.40243484  1
  Br  Br6  1  0.50141266  -0.00452324  0.65242345  1
  Br  Br7  1  -0.00452573  0.49859015  0.90241911  1
