# generated using pymatgen
data_LiI
_symmetry_space_group_name_H-M   'P 1'
_cell_length_a   7.79058335
_cell_length_b   7.79323276
_cell_length_c   9.41699318
_cell_angle_alpha   89.99994511
_cell_angle_beta   90.00007796
_cell_angle_gamma   120.01425663
_symmetry_Int_Tables_number   1
_chemical_formula_structural   LiI
_chemical_formula_sum   'Li6 I6'
_cell_volume   495.07170416
_cell_formula_units_Z   6
loop_
 _symmetry_equiv_pos_site_id
 _symmetry_equiv_pos_as_xyz
  1  'x, y, z'
loop_
 _atom_site_type_symbol
 _atom_site_label
 _atom_site_symmetry_multiplicity
 _atom_site_fract_x
 _atom_site_fract_y
 _atom_site_fract_z
 _atom_site_occupancy
  Li  Li0  1  0.39042318  0.78230676  0.71529394  1
  Li  Li1  1  0.60740668  0.38997691  0.54887244  1
  Li  Li2  1  0.39259216  0.61002101  0.04887217  1
  Li  Li3  1  0.78286853  0.39229340  0.88229393  1
  Li  Li4  1  0.21713207  0.60770563  0.38229440  1
  Li  Li5  1  0.60957660  0.21769372  0.21529376  1
  I  I6  1  -0.00091298  0.49933438  0.63206834  1
  I  I7  1  0.49909536  -0.00087914  0.46491871  1
  I  I8  1  0.50090470  0.00087863  0.96491955  1
  I  I9  1  0.49954176  0.50003853  0.79892478  1
  I  I10  1  0.50045915  0.49996229  0.29892480  1
  I  I11  1  0.00091278  0.50066788  0.13206875  1
