# generated using pymatgen
data_KI
_symmetry_space_group_name_H-M   'P 1'
_cell_length_a   10.16942474
_cell_length_b   7.18256112
_cell_length_c   5.07840151
_cell_angle_alpha   89.99999998
_cell_angle_beta   89.99999973
_cell_angle_gamma   90.00000007
_symmetry_Int_Tables_number   1
_chemical_formula_structural   KI
_chemical_formula_sum   'K4 I4'
_cell_volume   370.93921741
_cell_formula_units_Z   4
loop_
 _symmetry_equiv_pos_site_id
 _symmetry_equiv_pos_as_xyz
  1  'x, y, z'
loop_
 _atom_site_type_symbol
 _atom_site_label
 _atom_site_symmetry_multiplicity
 _atom_site_fract_x
 _atom_site_fract_y
 _atom_site_fract_z
 _atom_site_occupancy
  K  K0  1  0.87636782  0.24967649  0.41185022  1
  K  K1  1  0.37636782  0.25032351  0.41185025  1
  K  K2  1  0.12363218  0.75032351  0.91185039  1
  K  K3  1  0.62363219  0.74967649  0.91185036  1
  I  I4  1  0.62620254  0.24951144  0.91228260  1
  I  I5  1  0.12620253  0.25048856  0.91228261  1
  I  I6  1  0.37379747  0.75048856  0.41228245  1
  I  I7  1  0.87379746  0.74951144  0.41228243  1
