# generated using pymatgen
data_LiBr
_symmetry_space_group_name_H-M   'P 1'
_cell_length_a   10.23585897
_cell_length_b   10.23586012
_cell_length_c   12.62675167
_cell_angle_alpha   90.00201769
_cell_angle_beta   89.99797895
_cell_angle_gamma   120.00478056
_symmetry_Int_Tables_number   1
_chemical_formula_structural   LiBr
_chemical_formula_sum   'Li18 Br18'
_cell_volume   1145.64478681
_cell_formula_units_Z   18
loop_
 _symmetry_equiv_pos_site_id
 _symmetry_equiv_pos_as_xyz
  1  'x, y, z'
loop_
 _atom_site_type_symbol
 _atom_site_label
 _atom_site_symmetry_multiplicity
 _atom_site_fract_x
 _atom_site_fract_y
 _atom_site_fract_z
 _atom_site_occupancy
  Li  Li0  1  0.00108983  0.25017714  0.26891916  1
  Li  Li1  1  0.00108296  0.75091189  0.76892207  1
  Li  Li2  1  0.08315625  0.66557671  0.43558573  1
  Li  Li3  1  0.58241712  0.91683505  0.43558517  1
  Li  Li4  1  0.41649813  0.08424918  0.60225193  1
  Li  Li5  1  0.74983154  0.75091596  0.26891872  1
  Li  Li6  1  0.58242101  0.66558365  0.93558876  1
  Li  Li7  1  0.08316542  0.41758295  0.93558518  1
  Li  Li8  1  0.24908731  -0.00108329  0.26892190  1
  Li  Li9  1  0.24908394  0.25016835  0.76891835  1
  Li  Li10  1  0.33442342  0.91684447  0.93558564  1
  Li  Li11  1  0.33441604  0.41757854  0.43558898  1
  Li  Li12  1  0.91575366  0.33225030  0.60225519  1
  Li  Li13  1  0.91575047  0.58350143  0.10225188  1
  Li  Li14  1  0.74982335  -0.00108931  0.76891918  1
  Li  Li15  1  0.41648955  0.33224345  0.10225260  1
  Li  Li16  1  0.66775644  0.58351131  0.60225242  1
  Li  Li17  1  0.66774988  0.08424567  0.10225533  1
  Br  Br18  1  0.25206590  0.25106691  0.26956073  1
  Br  Br19  1  0.25208086  0.00100381  0.76956525  1
  Br  Br20  1  0.08226603  0.41460046  0.43622726  1
  Br  Br21  1  0.33234208  -0.08224926  0.43622233  1
  Br  Br22  1  0.41558342  0.33432468  0.60288927  1
  Br  Br23  1  0.74891609  0.00099112  0.26955582  1
  Br  Br24  1  0.33232949  0.41458501  0.93623210  1
  Br  Br25  1  0.08224985  0.66765804  0.93622265  1
  Br  Br26  1  -0.00100429  0.74791822  0.26956555  1
  Br  Br27  1  -0.00099087  0.25108477  0.76955540  1
  Br  Br28  1  0.58539956  -0.08226610  0.93622719  1
  Br  Br29  1  0.58541403  0.66767052  0.43623208  1
  Br  Br30  1  0.66566242  0.08125162  0.60289898  1
  Br  Br31  1  0.66567559  0.58441732  0.10288916  1
  Br  Br32  1  0.74893324  0.74793439  0.76956075  1
  Br  Br33  1  0.41559969  0.08126729  0.10289395  1
  Br  Br34  1  0.91873227  0.58440050  0.60289362  1
  Br  Br35  1  0.91874830  0.33433724  0.10289874  1
