# generated using pymatgen
data_LiI
_symmetry_space_group_name_H-M   'P 1'
_cell_length_a   4.73922212
_cell_length_b   4.78025853
_cell_length_c   13.12509231
_cell_angle_alpha   90.00010828
_cell_angle_beta   89.99999652
_cell_angle_gamma   89.99999973
_symmetry_Int_Tables_number   1
_chemical_formula_structural   LiI
_chemical_formula_sum   'Li4 I4'
_cell_volume   297.34512038
_cell_formula_units_Z   4
loop_
 _symmetry_equiv_pos_site_id
 _symmetry_equiv_pos_as_xyz
  1  'x, y, z'
loop_
 _atom_site_type_symbol
 _atom_site_label
 _atom_site_symmetry_multiplicity
 _atom_site_fract_x
 _atom_site_fract_y
 _atom_site_fract_z
 _atom_site_occupancy
  Li  Li0  1  0.65231107  -0.00090263  0.49872268  1
  Li  Li1  1  0.34768910  0.49909832  0.00127772  1
  Li  Li2  1  0.84768914  0.00090158  -0.00127754  1
  Li  Li3  1  0.15231104  0.50090281  0.50127717  1
  I  I4  1  0.15353666  0.00070426  0.60998441  1
  I  I5  1  0.84646315  0.50070552  0.89001545  1
  I  I6  1  0.34646296  -0.00070567  0.10998461  1
  I  I7  1  0.65353687  0.49929583  0.39001550  1
