# generated using pymatgen
data_LiBr
_symmetry_space_group_name_H-M   'P 1'
_cell_length_a   8.93462057
_cell_length_b   5.01819112
_cell_length_c   4.26458284
_cell_angle_alpha   89.99999909
_cell_angle_beta   89.99985895
_cell_angle_gamma   89.99999454
_symmetry_Int_Tables_number   1
_chemical_formula_structural   LiBr
_chemical_formula_sum   'Li4 Br4'
_cell_volume   191.20527363
_cell_formula_units_Z   4
loop_
 _symmetry_equiv_pos_site_id
 _symmetry_equiv_pos_as_xyz
  1  'x, y, z'
loop_
 _atom_site_type_symbol
 _atom_site_label
 _atom_site_symmetry_multiplicity
 _atom_site_fract_x
 _atom_site_fract_y
 _atom_site_fract_z
 _atom_site_occupancy
  Li  Li0  1  0.95551285  0.74566298  -0.00034426  1
  Li  Li1  1  0.04448549  0.24566307  0.50034101  1
  Li  Li2  1  0.54449984  0.25433721  0.49965915  1
  Li  Li3  1  0.45550164  0.75433716  0.00034415  1
  Br  Br4  1  0.61890951  0.75327379  0.50052886  1
  Br  Br5  1  0.38109196  0.25327382  -0.00052752  1
  Br  Br6  1  0.88108821  0.24672599  0.00052710  1
  Br  Br7  1  0.11891050  0.74672598  0.49947151  1
