# generated using pymatgen
data_LiBr
_symmetry_space_group_name_H-M   'P 1'
_cell_length_a   11.53685154
_cell_length_b   11.53685822
_cell_length_c   7.92595516
_cell_angle_alpha   90.00298501
_cell_angle_beta   89.99695071
_cell_angle_gamma   120.00395483
_symmetry_Int_Tables_number   1
_chemical_formula_structural   LiBr
_chemical_formula_sum   'Li18 Br18'
_cell_volume   913.56571551
_cell_formula_units_Z   18
loop_
 _symmetry_equiv_pos_site_id
 _symmetry_equiv_pos_as_xyz
  1  'x, y, z'
loop_
 _atom_site_type_symbol
 _atom_site_label
 _atom_site_symmetry_multiplicity
 _atom_site_fract_x
 _atom_site_fract_y
 _atom_site_fract_z
 _atom_site_occupancy
  Li  Li0  1  0.20233556  0.79564149  0.05196949  1
  Li  Li1  1  0.20233928  0.40670637  0.55196962  1
  Li  Li2  1  0.53769002  0.46433072  0.21863535  1
  Li  Li3  1  0.92663271  0.46230171  0.21862788  1
  Li  Li4  1  0.87103248  0.74003478  0.38529356  1
  Li  Li5  1  0.20436650  0.40670066  0.05196128  1
  Li  Li6  1  0.92662756  0.46432899  0.71863651  1
  Li  Li7  1  0.53769778  0.07336769  0.71862688  1
  Li  Li8  1  0.59329230  0.79766070  0.05196848  1
  Li  Li9  1  0.59329832  0.79563289  0.55195943  1
  Li  Li10  1  0.53567014  0.46230917  0.71863653  1
  Li  Li11  1  0.53567168  0.07337460  0.21863640  1
  Li  Li12  1  0.25995962  0.13099480  0.38530230  1
  Li  Li13  1  0.25996463  0.12896686  0.88529291  1
  Li  Li14  1  0.20435764  0.79766334  0.55197005  1
  Li  Li15  1  0.87102227  0.13099756  0.88530597  1
  Li  Li16  1  0.86900327  0.12897738  0.38530448  1
  Li  Li17  1  0.86900489  0.74004120  0.88530141  1
  Br  Br18  1  0.78812843  0.21384484  0.64572149  1
  Br  Br19  1  0.78812546  0.57427180  0.14570236  1
  Br  Br20  1  0.11948878  0.87853822  0.81238622  1
  Br  Br21  1  0.75905010  0.88051136  0.81237354  1
  Br  Br22  1  0.45282205  0.90761712  0.97904133  1
  Br  Br23  1  0.78615611  0.57428268  0.64570741  1
  Br  Br24  1  0.75906146  0.87854172  0.31236867  1
  Br  Br25  1  0.11948903  0.24094856  0.31237502  1
  Br  Br26  1  0.42572861  0.21187481  0.64570202  1
  Br  Br27  1  0.42571716  0.21384483  0.14570686  1
  Br  Br28  1  0.12146192  0.88051080  0.31238675  1
  Br  Br29  1  0.12145912  0.24093826  0.81237032  1
  Br  Br30  1  0.09239535  0.54520734  0.97903695  1
  Br  Br31  1  0.09238506  0.54717748  0.47904150  1
  Br  Br32  1  0.78615558  0.21187223  0.14572111  1
  Br  Br33  1  0.45282256  0.54520414  0.47905266  1
  Br  Br34  1  0.45479467  0.54717814  0.97905200  1
  Br  Br35  1  0.45479185  0.90760479  0.47903641  1
