# generated using pymatgen
data_LiI
_symmetry_space_group_name_H-M   'P 1'
_cell_length_a   9.77859428
_cell_length_b   9.77856389
_cell_length_c   11.40711904
_cell_angle_alpha   90.00107192
_cell_angle_beta   90.00012696
_cell_angle_gamma   89.99916953
_symmetry_Int_Tables_number   1
_chemical_formula_structural   LiI
_chemical_formula_sum   'Li16 I16'
_cell_volume   1090.75566820
_cell_formula_units_Z   16
loop_
 _symmetry_equiv_pos_site_id
 _symmetry_equiv_pos_as_xyz
  1  'x, y, z'
loop_
 _atom_site_type_symbol
 _atom_site_label
 _atom_site_symmetry_multiplicity
 _atom_site_fract_x
 _atom_site_fract_y
 _atom_site_fract_z
 _atom_site_occupancy
  Li  Li0  1  0.34912320  0.27918174  0.13243358  1
  Li  Li1  1  0.22078910  0.84913212  0.36756826  1
  Li  Li2  1  0.34912766  0.77919775  0.11757101  1
  Li  Li3  1  0.65086832  0.72079955  0.13243036  1
  Li  Li4  1  0.77918369  0.15087534  0.36756768  1
  Li  Li5  1  0.72081231  0.84912808  0.38242893  1
  Li  Li6  1  0.27920712  0.15087104  0.38243485  1
  Li  Li7  1  0.22082737  0.34912165  0.88243157  1
  Li  Li8  1  0.77920296  0.65086966  0.88243239  1
  Li  Li9  1  0.15087617  0.22081558  0.63243036  1
  Li  Li10  1  0.27917683  0.65087477  0.86757114  1
  Li  Li11  1  0.84912178  0.77919971  0.63243236  1
  Li  Li12  1  0.72080040  0.34912890  0.86756481  1
  Li  Li13  1  0.84912779  0.27918598  0.61756914  1
  Li  Li14  1  0.15087191  0.72079855  0.61756677  1
  Li  Li15  1  0.65088250  0.22081982  0.11756673  1
  I  I16  1  0.71316533  0.51970165  0.67473813  1
  I  I17  1  0.98030318  0.21316534  0.82526064  1
  I  I18  1  0.71315199  0.01970569  0.57526040  1
  I  I19  1  0.28684818  0.48029731  0.67473952  1
  I  I20  1  0.01970328  0.78684537  0.82526163  1
  I  I21  1  0.48030093  0.21314915  0.92473996  1
  I  I22  1  0.51969949  0.78682973  0.92473821  1
  I  I23  1  0.98029008  0.71315456  0.42473767  1
  I  I24  1  0.01970280  0.28683490  0.42473840  1
  I  I25  1  0.78683344  0.98029800  0.17473663  1
  I  I26  1  0.51970589  0.28685131  0.32526014  1
  I  I27  1  0.21315436  0.01970388  0.17473985  1
  I  I28  1  0.48029440  0.71316933  0.32526380  1
  I  I29  1  0.21316618  0.51969889  0.07526293  1
  I  I30  1  0.78684903  0.48029786  0.07525947  1
  I  I31  1  0.28683230  0.98029682  0.57526271  1
