# generated using pymatgen
data_LiBr
_symmetry_space_group_name_H-M   'P 1'
_cell_length_a   7.84639272
_cell_length_b   7.84639816
_cell_length_c   12.50572337
_cell_angle_alpha   89.99993995
_cell_angle_beta   89.99984326
_cell_angle_gamma   89.99976582
_symmetry_Int_Tables_number   1
_chemical_formula_structural   LiBr
_chemical_formula_sum   'Li16 Br16'
_cell_volume   769.92638271
_cell_formula_units_Z   16
loop_
 _symmetry_equiv_pos_site_id
 _symmetry_equiv_pos_as_xyz
  1  'x, y, z'
loop_
 _atom_site_type_symbol
 _atom_site_label
 _atom_site_symmetry_multiplicity
 _atom_site_fract_x
 _atom_site_fract_y
 _atom_site_fract_z
 _atom_site_occupancy
  Li  Li0  1  0.31626649  0.31923703  0.24987986  1
  Li  Li1  1  0.18076720  0.81626597  0.25011995  1
  Li  Li2  1  0.31626198  0.81923823  0.00011914  1
  Li  Li3  1  0.68373830  0.68076330  0.24987994  1
  Li  Li4  1  0.81923698  0.18373149  0.25012054  1
  Li  Li5  1  0.68076558  0.81626669  0.49987951  1
  Li  Li6  1  0.31923269  0.18373331  0.49987964  1
  Li  Li7  1  0.18076013  0.31626861  -0.00011977  1
  Li  Li8  1  0.81923454  0.68373315  -0.00012067  1
  Li  Li9  1  0.18373454  0.18076547  0.74987993  1
  Li  Li10  1  0.31923824  0.68373311  0.75011989  1
  Li  Li11  1  0.81626476  0.81923503  0.74987960  1
  Li  Li12  1  0.68076259  0.31626383  0.75011998  1
  Li  Li13  1  0.81626298  0.31923638  0.50012011  1
  Li  Li14  1  0.18373707  0.68076435  0.50011991  1
  Li  Li15  1  0.68373296  0.18076360  0.00012064  1
  Br  Br16  1  0.06373105  0.25134564  0.37611992  1
  Br  Br17  1  0.24865883  0.56373365  0.12388008  1
  Br  Br18  1  0.06373143  0.75134060  0.87387925  1
  Br  Br19  1  0.93627037  0.74865742  0.37612020  1
  Br  Br20  1  0.75134651  0.43626653  0.12388067  1
  Br  Br21  1  0.74865387  0.56373208  0.62612021  1
  Br  Br22  1  0.25134438  0.43626784  0.62611938  1
  Br  Br23  1  0.24865532  0.06373371  0.12611995  1
  Br  Br24  1  0.75134462  0.93626659  0.12611996  1
  Br  Br25  1  0.43626641  0.24865866  0.87612077  1
  Br  Br26  1  0.25134345  0.93626772  0.62388059  1
  Br  Br27  1  0.56373134  0.75134609  0.87612047  1
  Br  Br28  1  0.74865727  0.06373181  0.62388002  1
  Br  Br29  1  0.56373115  0.25134085  0.37388038  1
  Br  Br30  1  0.43627042  0.74865573  0.37387988  1
  Br  Br31  1  0.93626654  0.24865554  0.87388007  1
