# generated using pymatgen
data_NaI
_symmetry_space_group_name_H-M   'P 1'
_cell_length_a   15.34564715
_cell_length_b   4.63480302
_cell_length_c   9.23949737
_cell_angle_alpha   89.99820150
_cell_angle_beta   154.81791842
_cell_angle_gamma   90.00083900
_symmetry_Int_Tables_number   1
_chemical_formula_structural   NaI
_chemical_formula_sum   'Na4 I4'
_cell_volume   279.61510078
_cell_formula_units_Z   4
loop_
 _symmetry_equiv_pos_site_id
 _symmetry_equiv_pos_as_xyz
  1  'x, y, z'
loop_
 _atom_site_type_symbol
 _atom_site_label
 _atom_site_symmetry_multiplicity
 _atom_site_fract_x
 _atom_site_fract_y
 _atom_site_fract_z
 _atom_site_occupancy
  Na  Na0  1  0.25094602  0.75120414  0.75195808  1
  Na  Na1  1  0.74906770  0.25120333  0.74808094  1
  Na  Na2  1  0.74905614  0.24879528  0.24804247  1
  Na  Na3  1  0.25093019  0.74879684  0.25191857  1
  I  I4  1  0.75060780  0.75084186  0.50093076  1
  I  I5  1  0.24939446  0.25084218  -0.00092820  1
  I  I6  1  0.24939205  0.24915844  0.49906897  1
  I  I7  1  0.75060564  0.74915793  0.00092840  1
