# generated using pymatgen
data_LiI
_symmetry_space_group_name_H-M   'P 1'
_cell_length_a   4.60361162
_cell_length_b   8.02554972
_cell_length_c   8.36891007
_cell_angle_alpha   89.99975378
_cell_angle_beta   121.53777336
_cell_angle_gamma   90.00010124
_symmetry_Int_Tables_number   1
_chemical_formula_structural   LiI
_chemical_formula_sum   'Li4 I4'
_cell_volume   263.53152144
_cell_formula_units_Z   4
loop_
 _symmetry_equiv_pos_site_id
 _symmetry_equiv_pos_as_xyz
  1  'x, y, z'
loop_
 _atom_site_type_symbol
 _atom_site_label
 _atom_site_symmetry_multiplicity
 _atom_site_fract_x
 _atom_site_fract_y
 _atom_site_fract_z
 _atom_site_occupancy
  Li  Li0  1  0.46009493  0.58348342  0.40332832  1
  Li  Li1  1  0.96009060  0.08348195  0.40332496  1
  Li  Li2  1  0.46008521  0.41651826  0.90332021  1
  Li  Li3  1  0.96009038  0.91651817  0.90332579  1
  I  I4  1  0.06664622  0.41576400  0.51433070  1
  I  I5  1  0.56663542  0.91575975  0.51432587  1
  I  I6  1  0.06662849  0.58423905  0.01431839  1
  I  I7  1  0.56663803  0.08423539  0.01432237  1
