# generated using pymatgen
data_LiI
_symmetry_space_group_name_H-M   'P 1'
_cell_length_a   8.57901511
_cell_length_b   8.57901545
_cell_length_c   13.96047778
_cell_angle_alpha   90.00021916
_cell_angle_beta   89.99995180
_cell_angle_gamma   90.00009240
_symmetry_Int_Tables_number   1
_chemical_formula_structural   LiI
_chemical_formula_sum   'Li16 I16'
_cell_volume   1027.48422828
_cell_formula_units_Z   16
loop_
 _symmetry_equiv_pos_site_id
 _symmetry_equiv_pos_as_xyz
  1  'x, y, z'
loop_
 _atom_site_type_symbol
 _atom_site_label
 _atom_site_symmetry_multiplicity
 _atom_site_fract_x
 _atom_site_fract_y
 _atom_site_fract_z
 _atom_site_occupancy
  Li  Li0  1  0.19026242  0.31222356  0.31397897  1
  Li  Li1  1  0.81222177  0.19026463  0.56397882  1
  Li  Li2  1  0.80973397  0.31221807  0.81397869  1
  Li  Li3  1  0.80974323  0.68778030  0.31398000  1
  Li  Li4  1  0.18777503  0.80974007  0.56397778  1
  Li  Li5  1  0.68777674  0.69026312  0.56397972  1
  Li  Li6  1  0.31222297  0.30974339  0.56397977  1
  Li  Li7  1  0.18777926  0.19025991  0.06397925  1
  Li  Li8  1  0.81222110  0.80973958  0.06397971  1
  Li  Li9  1  0.30973979  0.18777390  0.81397966  1
  Li  Li10  1  0.68778252  0.30973708  0.06398001  1
  Li  Li11  1  0.69026372  0.81221489  0.81397842  1
  Li  Li12  1  0.31222406  0.69026368  0.06397866  1
  Li  Li13  1  0.30973639  0.81222599  0.31397752  1
  Li  Li14  1  0.69026311  0.18778358  0.31397991  1
  Li  Li15  1  0.19025650  0.68777070  0.81397897  1
  I  I16  1  0.74845360  0.44190010  0.43942246  1
  I  I17  1  0.94189606  0.74845185  0.68942085  1
  I  I18  1  0.25154793  0.44189537  0.93942311  1
  I  I19  1  0.25154706  0.55810515  0.43942102  1
  I  I20  1  0.05810243  0.25154689  0.68942298  1
  I  I21  1  0.55810163  0.24845356  0.68942180  1
  I  I22  1  0.44189431  0.75154737  0.68942211  1
  I  I23  1  0.05810354  0.74845220  0.18942122  1
  I  I24  1  0.94189892  0.25154622  0.18942223  1
  I  I25  1  0.75154473  0.05810007  0.93942122  1
  I  I26  1  0.55810441  0.75154562  0.18942282  1
  I  I27  1  0.24845073  0.94189490  0.93942182  1
  I  I28  1  0.44189886  0.24845219  0.18942234  1
  I  I29  1  0.75154598  0.94189970  0.43942202  1
  I  I30  1  0.24845193  0.05810564  0.43942253  1
  I  I31  1  0.74845531  0.55810072  0.93942246  1
