# generated using pymatgen
data_LiI
_symmetry_space_group_name_H-M   'P 1'
_cell_length_a   6.01056097
_cell_length_b   6.02659455
_cell_length_c   6.00824708
_cell_angle_alpha   89.99990788
_cell_angle_beta   90.09507983
_cell_angle_gamma   89.99999905
_symmetry_Int_Tables_number   1
_chemical_formula_structural   LiI
_chemical_formula_sum   'Li4 I4'
_cell_volume   217.63771984
_cell_formula_units_Z   4
loop_
 _symmetry_equiv_pos_site_id
 _symmetry_equiv_pos_as_xyz
  1  'x, y, z'
loop_
 _atom_site_type_symbol
 _atom_site_label
 _atom_site_symmetry_multiplicity
 _atom_site_fract_x
 _atom_site_fract_y
 _atom_site_fract_z
 _atom_site_occupancy
  Li  Li0  1  0.22091066  0.74577388  0.07225027  1
  Li  Li1  1  0.72091428  0.24577791  0.07225191  1
  Li  Li2  1  0.22090988  0.25422691  0.57224862  1
  Li  Li3  1  0.72091409  0.75422167  0.57225040  1
  I  I4  1  0.72074273  0.74878095  0.07258186  1
  I  I5  1  0.22074311  0.24878071  0.07258143  1
  I  I6  1  0.72074245  0.25121864  0.57258189  1
  I  I7  1  0.22074301  0.75121934  0.57258146  1
