# generated using pymatgen
data_LiBr
_symmetry_space_group_name_H-M   'P 1'
_cell_length_a   6.13238081
_cell_length_b   4.35082897
_cell_length_c   7.61254620
_cell_angle_alpha   90.00014652
_cell_angle_beta   90.22957940
_cell_angle_gamma   89.99993386
_symmetry_Int_Tables_number   1
_chemical_formula_structural   LiBr
_chemical_formula_sum   'Li4 Br4'
_cell_volume   203.10825864
_cell_formula_units_Z   4
loop_
 _symmetry_equiv_pos_site_id
 _symmetry_equiv_pos_as_xyz
  1  'x, y, z'
loop_
 _atom_site_type_symbol
 _atom_site_label
 _atom_site_symmetry_multiplicity
 _atom_site_fract_x
 _atom_site_fract_y
 _atom_site_fract_z
 _atom_site_occupancy
  Li  Li0  1  0.68991532  0.00648363  0.33361757  1
  Li  Li1  1  0.31008501  0.50648429  0.16638144  1
  Li  Li2  1  0.31008091  -0.00648257  0.66638188  1
  Li  Li3  1  0.68991862  0.49351644  0.83361914  1
  Br  Br4  1  0.25701900  0.49406333  0.83443703  1
  Br  Br5  1  0.74298030  -0.00593949  0.66556320  1
  Br  Br6  1  0.74298289  0.50593582  0.16556432  1
  Br  Br7  1  0.25701795  0.00593855  0.33443542  1
