# generated using pymatgen
data_LiI
_symmetry_space_group_name_H-M   'P 1'
_cell_length_a   10.26690508
_cell_length_b   10.26693077
_cell_length_c   11.12057969
_cell_angle_alpha   89.99045388
_cell_angle_beta   90.00998599
_cell_angle_gamma   120.01616565
_symmetry_Int_Tables_number   1
_chemical_formula_structural   LiI
_chemical_formula_sum   'Li12 I12'
_cell_volume   1015.00331978
_cell_formula_units_Z   12
loop_
 _symmetry_equiv_pos_site_id
 _symmetry_equiv_pos_as_xyz
  1  'x, y, z'
loop_
 _atom_site_type_symbol
 _atom_site_label
 _atom_site_symmetry_multiplicity
 _atom_site_fract_x
 _atom_site_fract_y
 _atom_site_fract_z
 _atom_site_occupancy
  Li  Li0  1  0.86021256  0.13947818  0.87435780  1
  Li  Li1  1  0.86052140  0.72071523  0.87438666  1
  Li  Li2  1  0.72080927  0.86025317  0.12559006  1
  Li  Li3  1  0.13978659  0.86052222  0.12564224  1
  Li  Li4  1  0.27928520  0.13947766  0.37438936  1
  Li  Li5  1  0.86052282  0.13978704  0.37435711  1
  Li  Li6  1  0.86025365  0.72081004  0.37440757  1
  Li  Li7  1  0.13947819  0.27928491  0.12561353  1
  Li  Li8  1  0.13974646  0.27918984  0.62559270  1
  Li  Li9  1  0.72071674  0.86052308  0.62561031  1
  Li  Li10  1  0.13947824  0.86021183  0.62564294  1
  Li  Li11  1  0.27918939  0.13974655  0.87440973  1
  I  I12  1  0.82800585  0.17221975  0.62458643  1
  I  I13  1  0.82779466  0.65580647  0.62464812  1
  I  I14  1  0.65581592  0.82801039  0.37535537  1
  I  I15  1  0.17199445  0.82778077  0.37541291  1
  I  I16  1  0.34419273  0.17220424  0.12465128  1
  I  I17  1  0.82777973  0.17199379  0.12458781  1
  I  I18  1  0.82800987  0.65581571  0.12464053  1
  I  I19  1  0.17220613  0.34419319  0.37535219  1
  I  I20  1  0.17198932  0.34418461  0.87535940  1
  I  I21  1  0.65580721  0.82779630  0.87534801  1
  I  I22  1  0.17221978  0.82800606  0.87541272  1
  I  I23  1  0.34418384  0.17198894  0.62464521  1
