# generated using pymatgen
data_NaI
_symmetry_space_group_name_H-M   'P 1'
_cell_length_a   9.24055165
_cell_length_b   4.61181612
_cell_length_c   6.53434861
_cell_angle_alpha   89.99705857
_cell_angle_beta   89.99691467
_cell_angle_gamma   90.00003052
_symmetry_Int_Tables_number   1
_chemical_formula_structural   NaI
_chemical_formula_sum   'Na4 I4'
_cell_volume   278.46600301
_cell_formula_units_Z   4
loop_
 _symmetry_equiv_pos_site_id
 _symmetry_equiv_pos_as_xyz
  1  'x, y, z'
loop_
 _atom_site_type_symbol
 _atom_site_label
 _atom_site_symmetry_multiplicity
 _atom_site_fract_x
 _atom_site_fract_y
 _atom_site_fract_z
 _atom_site_occupancy
  Na  Na0  1  0.87559441  0.74881041  0.00232324  1
  Na  Na1  1  0.12440544  0.24881594  0.49768769  1
  Na  Na2  1  0.62440512  0.25118680  0.50232649  1
  Na  Na3  1  0.37559471  0.75118717  0.99766267  1
  I  I4  1  0.12564902  0.25054837  -0.00099949  1
  I  I5  1  0.87435109  0.75053171  0.50099855  1
  I  I6  1  0.37435107  0.74946967  0.49899712  1
  I  I7  1  0.62564914  0.24944992  0.00100373  1
