# generated using pymatgen
data_LiBr
_symmetry_space_group_name_H-M   'P 1'
_cell_length_a   3.90009398
_cell_length_b   3.89990578
_cell_length_c   9.48758451
_cell_angle_alpha   89.99093069
_cell_angle_beta   90.00669107
_cell_angle_gamma   120.00644674
_symmetry_Int_Tables_number   1
_chemical_formula_structural   LiBr
_chemical_formula_sum   'Li3 Br3'
_cell_volume   124.96467219
_cell_formula_units_Z   3
loop_
 _symmetry_equiv_pos_site_id
 _symmetry_equiv_pos_as_xyz
  1  'x, y, z'
loop_
 _atom_site_type_symbol
 _atom_site_label
 _atom_site_symmetry_multiplicity
 _atom_site_fract_x
 _atom_site_fract_y
 _atom_site_fract_z
 _atom_site_occupancy
  Li  Li0  1  0.00063906  0.66597751  0.23933039  1
  Li  Li1  1  0.33401466  0.33466645  0.57270079  1
  Li  Li2  1  0.66535555  -0.00065056  0.90601463  1
  Br  Br3  1  0.66688875  -0.00034094  0.40598305  1
  Br  Br4  1  0.00034655  0.66723401  0.73929678  1
  Br  Br5  1  0.33275544  0.33311353  0.07263829  1
