# generated using pymatgen
data_LiBr
_symmetry_space_group_name_H-M   'P 1'
_cell_length_a   7.81688512
_cell_length_b   7.81688081
_cell_length_c   10.94397141
_cell_angle_alpha   89.99938837
_cell_angle_beta   90.00008895
_cell_angle_gamma   90.00006106
_symmetry_Int_Tables_number   1
_chemical_formula_structural   LiBr
_chemical_formula_sum   'Li16 Br16'
_cell_volume   668.71670009
_cell_formula_units_Z   16
loop_
 _symmetry_equiv_pos_site_id
 _symmetry_equiv_pos_as_xyz
  1  'x, y, z'
loop_
 _atom_site_type_symbol
 _atom_site_label
 _atom_site_symmetry_multiplicity
 _atom_site_fract_x
 _atom_site_fract_y
 _atom_site_fract_z
 _atom_site_occupancy
  Li  Li0  1  0.00130748  0.75119928  0.21416627  1
  Li  Li1  1  0.25119883  0.00130919  0.46416712  1
  Li  Li2  1  -0.00130840  0.75119773  0.71416733  1
  Li  Li3  1  -0.00130924  0.24880219  0.21416726  1
  Li  Li4  1  0.74879894  -0.00130690  0.46416818  1
  Li  Li5  1  0.24880070  0.50130738  0.46416614  1
  Li  Li6  1  0.75119828  0.49869274  0.46416675  1
  Li  Li7  1  0.74880029  0.00130722  -0.03583358  1
  Li  Li8  1  0.25119947  -0.00130709  -0.03583342  1
  Li  Li9  1  0.49869365  0.74879956  0.71416670  1
  Li  Li10  1  0.24879999  0.49869096  -0.03583168  1
  Li  Li11  1  0.50130675  0.25119851  0.71416647  1
  Li  Li12  1  0.75120097  0.50130561  -0.03583330  1
  Li  Li13  1  0.49869266  0.25120096  0.21416785  1
  Li  Li14  1  0.50130852  0.74880032  0.21416774  1
  Li  Li15  1  0.00130764  0.24880151  0.71416731  1
  Br  Br16  1  0.75039092  0.50069365  0.21449738  1
  Br  Br17  1  0.00069194  0.75039664  0.46449916  1
  Br  Br18  1  0.24960483  0.50069182  0.71449917  1
  Br  Br19  1  0.24960854  0.49930920  0.21449766  1
  Br  Br20  1  -0.00069022  0.24960531  0.46449876  1
  Br  Br21  1  0.49930734  0.25039062  0.46449791  1
  Br  Br22  1  0.50069194  0.74961019  0.46449725  1
  Br  Br23  1  -0.00069239  0.75039135  0.96449784  1
  Br  Br24  1  0.00069304  0.24960803  0.96449751  1
  Br  Br25  1  0.74960957  -0.00069336  0.71449799  1
  Br  Br26  1  0.49930827  0.74960459  0.96449906  1
  Br  Br27  1  0.25039128  0.00069101  0.71449761  1
  Br  Br28  1  0.50069076  0.25039282  0.96449934  1
  Br  Br29  1  0.74960698  0.00069034  0.21449883  1
  Br  Br30  1  0.25039604  -0.00069114  0.21449952  1
  Br  Br31  1  0.75039461  0.49930977  0.71449935  1
