# generated using pymatgen
data_NaI
_symmetry_space_group_name_H-M   'P 1'
_cell_length_a   8.69637793
_cell_length_b   5.21089845
_cell_length_c   8.08770657
_cell_angle_alpha   90.00003760
_cell_angle_beta   89.99957008
_cell_angle_gamma   89.99894652
_symmetry_Int_Tables_number   1
_chemical_formula_structural   NaI
_chemical_formula_sum   'Na4 I4'
_cell_volume   366.50204433
_cell_formula_units_Z   4
loop_
 _symmetry_equiv_pos_site_id
 _symmetry_equiv_pos_as_xyz
  1  'x, y, z'
loop_
 _atom_site_type_symbol
 _atom_site_label
 _atom_site_symmetry_multiplicity
 _atom_site_fract_x
 _atom_site_fract_y
 _atom_site_fract_z
 _atom_site_occupancy
  Na  Na0  1  0.58149782  0.25094719  0.49693916  1
  Na  Na1  1  0.08149788  0.74906121  0.49694037  1
  Na  Na2  1  0.41850579  0.74905821  -0.00305671  1
  Na  Na3  1  0.91850727  0.25095217  -0.00305607  1
  I  I4  1  0.92119395  0.24953493  0.38039477  1
  I  I5  1  0.42119279  0.75046253  0.38039520  1
  I  I6  1  0.07880285  0.75045939  0.88039712  1
  I  I7  1  0.57880164  0.24952437  0.88039739  1
