# generated using pymatgen
data_LiI
_symmetry_space_group_name_H-M   'P 1'
_cell_length_a   8.97289317
_cell_length_b   7.76322567
_cell_length_c   9.22328248
_cell_angle_alpha   89.99961301
_cell_angle_beta   90.00008776
_cell_angle_gamma   90.00005925
_symmetry_Int_Tables_number   1
_chemical_formula_structural   LiI
_chemical_formula_sum   'Li8 I8'
_cell_volume   642.48089529
_cell_formula_units_Z   8
loop_
 _symmetry_equiv_pos_site_id
 _symmetry_equiv_pos_as_xyz
  1  'x, y, z'
loop_
 _atom_site_type_symbol
 _atom_site_label
 _atom_site_symmetry_multiplicity
 _atom_site_fract_x
 _atom_site_fract_y
 _atom_site_fract_z
 _atom_site_occupancy
  Li  Li0  1  0.35543365  0.84259072  0.85771561  1
  Li  Li1  1  0.14458760  0.34258438  0.64228306  1
  Li  Li2  1  0.35543282  0.15740781  0.14228479  1
  Li  Li3  1  0.64455496  0.15741111  0.85771831  1
  Li  Li4  1  0.64455712  0.84259142  0.14228113  1
  Li  Li5  1  0.85541385  0.65742230  0.64228337  1
  Li  Li6  1  0.14459158  0.65741553  0.35771617  1
  Li  Li7  1  0.85541324  0.34257728  0.35771642  1
  I  I8  1  0.83488441  0.70190997  0.34143073  1
  I  I9  1  0.66510899  0.20189818  0.15857162  1
  I  I10  1  0.83488298  0.29809305  0.65857087  1
  I  I11  1  0.16511762  0.29809039  0.34142771  1
  I  I12  1  0.16511897  0.70190846  0.65857035  1
  I  I13  1  0.33489812  0.79809431  0.15857218  1
  I  I14  1  0.66510833  0.79810103  0.84142835  1
  I  I15  1  0.33489575  0.20190406  0.84142934  1
