# generated using pymatgen
data_KI
_symmetry_space_group_name_H-M   'P 1'
_cell_length_a   10.17552019
_cell_length_b   6.29019240
_cell_length_c   7.12779649
_cell_angle_alpha   89.99979894
_cell_angle_beta   90.00062441
_cell_angle_gamma   90.00001322
_symmetry_Int_Tables_number   1
_chemical_formula_structural   KI
_chemical_formula_sum   'K4 I4'
_cell_volume   456.22159734
_cell_formula_units_Z   4
loop_
 _symmetry_equiv_pos_site_id
 _symmetry_equiv_pos_as_xyz
  1  'x, y, z'
loop_
 _atom_site_type_symbol
 _atom_site_label
 _atom_site_symmetry_multiplicity
 _atom_site_fract_x
 _atom_site_fract_y
 _atom_site_fract_z
 _atom_site_occupancy
  K  K0  1  0.58056085  0.25030701  0.84702469  1
  K  K1  1  0.08056047  0.74969151  0.84702514  1
  K  K2  1  0.41943914  0.74969292  0.34702884  1
  K  K3  1  0.91943945  0.25031052  0.34702868  1
  I  I4  1  0.07448142  0.75101312  0.34709715  1
  I  I5  1  0.57448136  0.24898311  0.34709655  1
  I  I6  1  0.92551858  0.24898767  0.84710363  1
  I  I7  1  0.42551872  0.75101415  0.84710380  1
