# generated using pymatgen
data_LiBr
_symmetry_space_group_name_H-M   'P 1'
_cell_length_a   3.89203865
_cell_length_b   3.89205427
_cell_length_c   11.01176000
_cell_angle_alpha   89.99958398
_cell_angle_beta   89.99990367
_cell_angle_gamma   90.00000641
_symmetry_Int_Tables_number   1
_chemical_formula_structural   LiBr
_chemical_formula_sum   'Li4 Br4'
_cell_volume   166.80642279
_cell_formula_units_Z   4
loop_
 _symmetry_equiv_pos_site_id
 _symmetry_equiv_pos_as_xyz
  1  'x, y, z'
loop_
 _atom_site_type_symbol
 _atom_site_label
 _atom_site_symmetry_multiplicity
 _atom_site_fract_x
 _atom_site_fract_y
 _atom_site_fract_z
 _atom_site_occupancy
  Li  Li0  1  0.49636108  -0.00387026  0.39225328  1
  Li  Li1  1  -0.00386723  0.50363592  0.64225243  1
  Li  Li2  1  0.50363853  0.00386858  0.89225343  1
  Li  Li3  1  0.00386831  0.49636455  0.14225293  1
  Br  Br4  1  0.00292283  0.50102190  0.89176032  1
  Br  Br5  1  0.50102230  -0.00292205  0.14176014  1
  Br  Br6  1  -0.00292401  0.49897825  0.39175995  1
  Br  Br7  1  0.49897819  0.00292311  0.64176000  1
