# generated using pymatgen
data_LiBr
_symmetry_space_group_name_H-M   'P 1'
_cell_length_a   15.14312869
_cell_length_b   15.14330790
_cell_length_c   4.76302287
_cell_angle_alpha   90.02623493
_cell_angle_beta   89.97331979
_cell_angle_gamma   120.11904897
_symmetry_Int_Tables_number   1
_chemical_formula_structural   LiBr
_chemical_formula_sum   'Li18 Br18'
_cell_volume   944.77276313
_cell_formula_units_Z   18
loop_
 _symmetry_equiv_pos_site_id
 _symmetry_equiv_pos_as_xyz
  1  'x, y, z'
loop_
 _atom_site_type_symbol
 _atom_site_label
 _atom_site_symmetry_multiplicity
 _atom_site_fract_x
 _atom_site_fract_y
 _atom_site_fract_z
 _atom_site_occupancy
  Li  Li0  1  0.06794138  0.60139767  -0.00868925  1
  Li  Li1  1  0.06792693  0.46622163  0.49122808  1
  Li  Li2  1  0.73170050  0.59801136  0.15797664  1
  Li  Li3  1  0.86661923  0.26868672  0.15706453  1
  Li  Li4  1  0.06510046  0.79978418  0.32488192  1
  Li  Li5  1  0.39825828  0.46619419  -0.00962676  1
  Li  Li6  1  0.86663733  0.59800647  0.65790965  1
  Li  Li7  1  0.73131721  0.13338149  0.65706762  1
  Li  Li8  1  0.53378038  0.93207426  -0.00877744  1
  Li  Li9  1  0.53380761  0.60174156  0.49037110  1
  Li  Li10  1  0.40199090  0.26830050  0.65798390  1
  Li  Li11  1  0.40199299  0.13336231  0.15792082  1
  Li  Li12  1  0.20015282  0.26528675  0.32569916  1
  Li  Li13  1  0.20021621  0.93490654  0.82487942  1
  Li  Li14  1  0.39860200  0.93205776  0.49130938  1
  Li  Li15  1  0.06539582  0.26530472  0.82580786  1
  Li  Li16  1  0.73469397  0.93460428  0.32581641  1
  Li  Li17  1  0.73470993  0.79984829  0.82570950  1
  Br  Br18  1  0.87042683  0.32890739  0.65065018  1
  Br  Br19  1  0.87040316  0.54168778  0.15112616  1
  Br  Br20  1  0.00464319  0.79574460  0.81847495  1
  Br  Br21  1  0.79085504  -0.00477123  0.81932955  1
  Br  Br22  1  0.33820506  0.87567634  0.98476490  1
  Br  Br23  1  0.67129347  0.54182241  0.65146948  1
  Br  Br24  1  0.79099679  0.79582972  0.31894692  1
  Br  Br25  1  0.00476994  0.20914390  0.31932272  1
  Br  Br26  1  0.45831140  0.12959573  0.65113910  1
  Br  Br27  1  0.45817683  0.32870468  0.15147704  1
  Br  Br28  1  0.20425684  -0.00463988  0.31847222  1
  Br  Br29  1  0.20416971  0.20900051  0.81893701  1
  Br  Br30  1  0.12442851  0.46264523  0.98439974  1
  Br  Br31  1  0.12432267  0.66179308  0.48476638  1
  Br  Br32  1  0.67109359  0.12957223  0.15065428  1
  Br  Br33  1  0.33804572  0.46259365  0.48392184  1
  Br  Br34  1  0.53740368  0.66195323  0.98391900  1
  Br  Br35  1  0.53735358  0.87556999  0.48439340  1
