# generated using pymatgen
data_LiBr
_symmetry_space_group_name_H-M   'P 1'
_cell_length_a   6.61185193
_cell_length_b   6.61194203
_cell_length_c   3.95254047
_cell_angle_alpha   90.00118897
_cell_angle_beta   89.99858023
_cell_angle_gamma   120.00366722
_symmetry_Int_Tables_number   1
_chemical_formula_structural   LiBr
_chemical_formula_sum   'Li3 Br3'
_cell_volume   149.63840260
_cell_formula_units_Z   3
loop_
 _symmetry_equiv_pos_site_id
 _symmetry_equiv_pos_as_xyz
  1  'x, y, z'
loop_
 _atom_site_type_symbol
 _atom_site_label
 _atom_site_symmetry_multiplicity
 _atom_site_fract_x
 _atom_site_fract_y
 _atom_site_fract_z
 _atom_site_occupancy
  Li  Li0  1  0.94316780  0.66630497  0.90454747  1
  Li  Li1  1  0.33367851  0.27684877  0.23789554  1
  Li  Li2  1  0.72314440  0.05682609  0.57122246  1
  Br  Br3  1  0.97502074  0.30838811  0.07135993  1
  Br  Br4  1  0.69162402  0.66664196  0.40468991  1
  Br  Br5  1  0.33336452  0.02499010  0.73801966  1
