# generated using pymatgen
data_LiBr
_symmetry_space_group_name_H-M   'P 1'
_cell_length_a   10.90236256
_cell_length_b   10.90239297
_cell_length_c   10.90237076
_cell_angle_alpha   90.00000707
_cell_angle_beta   90.00000296
_cell_angle_gamma   89.99999543
_symmetry_Int_Tables_number   1
_chemical_formula_structural   LiBr
_chemical_formula_sum   'Li24 Br24'
_cell_volume   1295.87585822
_cell_formula_units_Z   24
loop_
 _symmetry_equiv_pos_site_id
 _symmetry_equiv_pos_as_xyz
  1  'x, y, z'
loop_
 _atom_site_type_symbol
 _atom_site_label
 _atom_site_symmetry_multiplicity
 _atom_site_fract_x
 _atom_site_fract_y
 _atom_site_fract_z
 _atom_site_occupancy
  Li  Li0  1  0.37310331  0.62735966  0.90246132  1
  Li  Li1  1  0.12736018  0.12689821  0.59753870  1
  Li  Li2  1  0.62689657  0.62736015  0.09753893  1
  Li  Li3  1  0.59753893  0.87263974  0.87310213  1
  Li  Li4  1  0.37264000  0.09753835  0.37310225  1
  Li  Li5  1  0.40246167  0.12736054  0.87310304  1
  Li  Li6  1  0.62735999  0.09753845  0.62689728  1
  Li  Li7  1  0.37263976  0.90246146  0.62689790  1
  Li  Li8  1  0.59753855  0.12735988  0.12689677  1
  Li  Li9  1  0.62736006  0.90246167  0.37310199  1
  Li  Li10  1  0.40246133  0.87263984  0.12689680  1
  Li  Li11  1  0.62689704  0.37264009  0.90246077  1
  Li  Li12  1  0.87264021  0.87310151  0.59753910  1
  Li  Li13  1  0.12736025  0.87310191  0.40246108  1
  Li  Li14  1  0.37310340  0.37264008  0.09753905  1
  Li  Li15  1  0.87264011  0.12689821  0.40246100  1
  Li  Li16  1  0.90246092  0.62689828  0.37264016  1
  Li  Li17  1  0.90246113  0.37310166  0.62736017  1
  Li  Li18  1  0.87310247  0.59753847  0.87264008  1
  Li  Li19  1  0.09753871  0.62689796  0.62736015  1
  Li  Li20  1  0.12689690  0.40246171  0.87264032  1
  Li  Li21  1  0.09753862  0.37310248  0.37263995  1
  Li  Li22  1  0.87310217  0.40246153  0.12736047  1
  Li  Li23  1  0.12689734  0.59753839  0.12735983  1
  Br  Br24  1  0.13198025  0.37599524  0.62376550  1
  Br  Br25  1  0.87599463  0.36802003  0.87623520  1
  Br  Br26  1  0.86801964  0.37599492  0.37623510  1
  Br  Br27  1  0.87623503  0.12400530  0.63197968  1
  Br  Br28  1  0.62400465  0.37623480  0.13197988  1
  Br  Br29  1  0.12376517  0.87599477  0.63197985  1
  Br  Br30  1  0.37599561  0.37623560  0.86802018  1
  Br  Br31  1  0.62400520  0.62376533  0.86802010  1
  Br  Br32  1  0.87623522  0.87599520  0.36802020  1
  Br  Br33  1  0.37599536  0.62376497  0.13198015  1
  Br  Br34  1  0.12376550  0.12400566  0.36802034  1
  Br  Br35  1  0.86801980  0.62400454  0.62376482  1
  Br  Br36  1  0.12400470  0.63198019  0.87623539  1
  Br  Br37  1  0.87599444  0.63198018  0.12376575  1
  Br  Br38  1  0.13198021  0.62400444  0.37623485  1
  Br  Br39  1  0.12400512  0.36801980  0.12376475  1
  Br  Br40  1  0.62376499  0.86802008  0.62400498  1
  Br  Br41  1  0.62376453  0.13198002  0.37599447  1
  Br  Br42  1  0.63198055  0.87623487  0.12400484  1
  Br  Br43  1  0.37623469  0.86802009  0.37599453  1
  Br  Br44  1  0.36801950  0.12376491  0.12400387  1
  Br  Br45  1  0.37623495  0.13197977  0.62400605  1
  Br  Br46  1  0.63198088  0.12376483  0.87599524  1
  Br  Br47  1  0.36801978  0.87623425  0.87599505  1
