# generated using pymatgen
data_LiBr
_symmetry_space_group_name_H-M   'P 1'
_cell_length_a   14.34670579
_cell_length_b   14.91651768
_cell_length_c   4.01430634
_cell_angle_alpha   89.99924318
_cell_angle_beta   89.99953321
_cell_angle_gamma   89.97968891
_symmetry_Int_Tables_number   1
_chemical_formula_structural   LiBr
_chemical_formula_sum   'Li16 Br16'
_cell_volume   859.07310624
_cell_formula_units_Z   16
loop_
 _symmetry_equiv_pos_site_id
 _symmetry_equiv_pos_as_xyz
  1  'x, y, z'
loop_
 _atom_site_type_symbol
 _atom_site_label
 _atom_site_symmetry_multiplicity
 _atom_site_fract_x
 _atom_site_fract_y
 _atom_site_fract_z
 _atom_site_occupancy
  Li  Li0  1  0.41960214  0.70337475  0.21268356  1
  Li  Li1  1  0.58039685  0.29662264  0.21267570  1
  Li  Li2  1  0.83069726  -0.04680787  0.46579002  1
  Li  Li3  1  0.08039584  0.29662536  0.71267206  1
  Li  Li4  1  0.33069712  -0.04680752  0.96578464  1
  Li  Li5  1  0.66930384  0.54680664  0.46579011  1
  Li  Li6  1  0.91960220  0.70337511  0.71267973  1
  Li  Li7  1  0.33069789  0.45319252  0.46579001  1
  Li  Li8  1  0.66930325  0.04680647  0.96578971  1
  Li  Li9  1  0.91960165  0.20337525  0.21267871  1
  Li  Li10  1  0.08039628  0.79662555  0.21267150  1
  Li  Li11  1  0.83069799  0.45319219  0.96579071  1
  Li  Li12  1  0.16930397  0.54680845  0.96578927  1
  Li  Li13  1  0.16930313  0.04680839  0.46578465  1
  Li  Li14  1  0.41960108  0.20337501  0.71268317  1
  Li  Li15  1  0.58039656  0.79662322  0.71267467  1
  Br  Br16  1  0.90136552  0.30932363  0.72560279  1
  Br  Br17  1  0.09863330  0.69067795  0.72560447  1
  Br  Br18  1  0.34849020  0.55932673  0.97888304  1
  Br  Br19  1  0.59863311  0.69067608  0.22560713  1
  Br  Br20  1  0.84848991  0.55932671  0.47888384  1
  Br  Br21  1  0.15151164  0.94067463  0.97888911  1
  Br  Br22  1  0.40136647  0.30932370  0.22560729  1
  Br  Br23  1  0.84848908  0.05932682  0.97888399  1
  Br  Br24  1  0.15151218  0.44067457  0.47889390  1
  Br  Br25  1  0.40136635  0.80932348  0.72560744  1
  Br  Br26  1  0.59863217  0.19067561  0.72560773  1
  Br  Br27  1  0.34848915  0.05932705  0.47887905  1
  Br  Br28  1  0.65151216  0.94067261  0.47889396  1
  Br  Br29  1  0.65151277  0.44067243  0.97889515  1
  Br  Br30  1  0.90136609  0.80932378  0.22560421  1
  Br  Br31  1  0.09863287  0.19067807  0.22560402  1
