# generated using pymatgen
data_NaI
_symmetry_space_group_name_H-M   'P 1'
_cell_length_a   4.62871318
_cell_length_b   4.62879425
_cell_length_c   12.91242414
_cell_angle_alpha   89.99951368
_cell_angle_beta   90.00033128
_cell_angle_gamma   89.99956608
_symmetry_Int_Tables_number   1
_chemical_formula_structural   NaI
_chemical_formula_sum   'Na4 I4'
_cell_volume   276.65334781
_cell_formula_units_Z   4
loop_
 _symmetry_equiv_pos_site_id
 _symmetry_equiv_pos_as_xyz
  1  'x, y, z'
loop_
 _atom_site_type_symbol
 _atom_site_label
 _atom_site_symmetry_multiplicity
 _atom_site_fract_x
 _atom_site_fract_y
 _atom_site_fract_z
 _atom_site_occupancy
  Na  Na0  1  0.00253369  0.50725212  0.24375375  1
  Na  Na1  1  0.50724451  0.99747112  0.49375189  1
  Na  Na2  1  0.99747989  0.49275058  0.74375311  1
  Na  Na3  1  0.49274330  0.00252642  0.99375534  1
  I  I4  1  0.00529257  0.49728306  0.49349029  1
  I  I5  1  0.49728914  -0.00529792  0.74349044  1
  I  I6  1  -0.00530305  0.50271586  -0.00650924  1
  I  I7  1  0.50271996  0.00529876  0.24349070  1
