# generated using pymatgen
data_LiI
_symmetry_space_group_name_H-M   'P 1'
_cell_length_a   16.38675448
_cell_length_b   14.69264567
_cell_length_c   4.24008464
_cell_angle_alpha   90.00009469
_cell_angle_beta   89.99989319
_cell_angle_gamma   90.00036234
_symmetry_Int_Tables_number   1
_chemical_formula_structural   LiI
_chemical_formula_sum   'Li16 I16'
_cell_volume   1020.86303268
_cell_formula_units_Z   16
loop_
 _symmetry_equiv_pos_site_id
 _symmetry_equiv_pos_as_xyz
  1  'x, y, z'
loop_
 _atom_site_type_symbol
 _atom_site_label
 _atom_site_symmetry_multiplicity
 _atom_site_fract_x
 _atom_site_fract_y
 _atom_site_fract_z
 _atom_site_occupancy
  Li  Li0  1  0.59016275  0.32043892  0.42687001  1
  Li  Li1  1  0.40983678  0.67956195  0.42686378  1
  Li  Li2  1  0.65983687  0.57043857  0.67686357  1
  Li  Li3  1  0.90983711  0.67956166  0.92685931  1
  Li  Li4  1  0.15983550  0.57043675  0.17686076  1
  Li  Li5  1  0.84016239  0.92956141  0.67686883  1
  Li  Li6  1  0.09016215  0.32043854  0.92687222  1
  Li  Li7  1  0.15983689  0.07043817  0.67685886  1
  Li  Li8  1  0.84016165  0.42956095  0.17686694  1
  Li  Li9  1  0.09016292  0.82043941  0.42686722  1
  Li  Li10  1  0.90983736  0.17956224  0.42685875  1
  Li  Li11  1  0.65983644  0.07043742  0.17685971  1
  Li  Li12  1  0.34016201  0.92956170  0.17687433  1
  Li  Li13  1  0.34016325  0.42956222  0.67687055  1
  Li  Li14  1  0.59016294  0.82043800  0.92687040  1
  Li  Li15  1  0.40983631  0.17956178  0.92686007  1
  I  I16  1  0.81799922  0.10556445  0.92873078  1
  I  I17  1  0.18200194  0.89443593  0.92873208  1
  I  I18  1  0.43200152  0.35556491  0.17873435  1
  I  I19  1  0.68200099  0.89443583  0.42873295  1
  I  I20  1  0.93200117  0.35556548  0.67873137  1
  I  I21  1  0.06799947  0.14443520  0.17873039  1
  I  I22  1  0.31799950  0.10556396  0.42873201  1
  I  I23  1  0.93200123  0.85556424  0.17873092  1
  I  I24  1  0.06800016  0.64443497  0.67873032  1
  I  I25  1  0.31799840  0.60556473  0.92873698  1
  I  I26  1  0.68200144  0.39443609  0.92873139  1
  I  I27  1  0.43200187  0.85556304  0.67873487  1
  I  I28  1  0.56799977  0.14443531  0.67873032  1
  I  I29  1  0.56799832  0.64443532  0.17873757  1
  I  I30  1  0.81799918  0.60556437  0.42873088  1
  I  I31  1  0.18200250  0.39443649  0.42873330  1
