# generated using pymatgen
data_LiI
_symmetry_space_group_name_H-M   'P 1'
_cell_length_a   9.04167300
_cell_length_b   8.98117724
_cell_length_c   7.34654950
_cell_angle_alpha   90.00023967
_cell_angle_beta   90.00288072
_cell_angle_gamma   90.00005561
_symmetry_Int_Tables_number   1
_chemical_formula_structural   LiI
_chemical_formula_sum   'Li8 I8'
_cell_volume   596.57558015
_cell_formula_units_Z   8
loop_
 _symmetry_equiv_pos_site_id
 _symmetry_equiv_pos_as_xyz
  1  'x, y, z'
loop_
 _atom_site_type_symbol
 _atom_site_label
 _atom_site_symmetry_multiplicity
 _atom_site_fract_x
 _atom_site_fract_y
 _atom_site_fract_z
 _atom_site_occupancy
  Li  Li0  1  0.13699985  0.63585026  0.82676390  1
  Li  Li1  1  0.63699750  0.86415666  0.82674538  1
  Li  Li2  1  0.86298397  0.63582829  0.32678419  1
  Li  Li3  1  0.86299099  0.36417128  0.82677760  1
  Li  Li4  1  0.13699873  0.36415523  0.32675674  1
  Li  Li5  1  0.36299392  0.13583829  0.82680940  1
  Li  Li6  1  0.36298270  0.86416298  0.32681149  1
  Li  Li7  1  0.63699359  0.13583829  0.32674380  1
  I  I8  1  0.84250844  0.65997914  -0.04984932  1
  I  I9  1  0.34251342  0.84002699  -0.04983218  1
  I  I10  1  0.15751461  0.65995070  0.45014946  1
  I  I11  1  0.15752662  0.34005501  -0.04985587  1
  I  I12  1  0.84250661  0.34001842  0.45014586  1
  I  I13  1  0.65753335  0.15995031  -0.04986367  1
  I  I14  1  0.65751994  0.84004272  0.45013828  1
  I  I15  1  0.34251037  0.15997545  0.45016654  1
