# generated using pymatgen
data_LiBr
_symmetry_space_group_name_H-M   'P 1'
_cell_length_a   6.35481345
_cell_length_b   5.36225958
_cell_length_c   6.41953147
_cell_angle_alpha   90.00066000
_cell_angle_beta   89.99995716
_cell_angle_gamma   89.99967477
_symmetry_Int_Tables_number   1
_chemical_formula_structural   LiBr
_chemical_formula_sum   'Li4 Br4'
_cell_volume   218.75297675
_cell_formula_units_Z   4
loop_
 _symmetry_equiv_pos_site_id
 _symmetry_equiv_pos_as_xyz
  1  'x, y, z'
loop_
 _atom_site_type_symbol
 _atom_site_label
 _atom_site_symmetry_multiplicity
 _atom_site_fract_x
 _atom_site_fract_y
 _atom_site_fract_z
 _atom_site_occupancy
  Li  Li0  1  0.24979158  0.49534148  0.13145312  1
  Li  Li1  1  0.74979290  0.50465704  0.13145118  1
  Li  Li2  1  0.75020615  0.50464976  0.63145385  1
  Li  Li3  1  0.25020827  0.49534813  0.63145428  1
  Br  Br4  1  0.00237301  0.72155421  0.38184813  1
  Br  Br5  1  0.50237245  0.27844791  0.38184837  1
  Br  Br6  1  -0.00237391  0.27845083  0.88184861  1
  Br  Br7  1  0.49762956  0.72155065  0.88184774  1
