# generated using pymatgen
data_KCl
_symmetry_space_group_name_H-M   'P 1'
_cell_length_a   6.38889017
_cell_length_b   6.38292088
_cell_length_c   6.38057524
_cell_angle_alpha   89.99999606
_cell_angle_beta   90.05116080
_cell_angle_gamma   89.99999982
_symmetry_Int_Tables_number   1
_chemical_formula_structural   KCl
_chemical_formula_sum   'K4 Cl4'
_cell_volume   260.19835413
_cell_formula_units_Z   4
loop_
 _symmetry_equiv_pos_site_id
 _symmetry_equiv_pos_as_xyz
  1  'x, y, z'
loop_
 _atom_site_type_symbol
 _atom_site_label
 _atom_site_symmetry_multiplicity
 _atom_site_fract_x
 _atom_site_fract_y
 _atom_site_fract_z
 _atom_site_occupancy
  K  K0  1  0.25025305  0.99748717  0.75011353  1
  K  K1  1  0.74974710  0.49748716  0.74988634  1
  K  K2  1  0.74974695  0.00251283  0.24988647  1
  K  K3  1  0.25025290  0.50251284  0.25011366  1
  Cl  Cl4  1  0.75032333  0.99749333  0.74943099  1
  Cl  Cl5  1  0.24967680  0.49749333  0.75056925  1
  Cl  Cl6  1  0.24967667  0.00250667  0.25056901  1
  Cl  Cl7  1  0.75032320  0.50250667  0.24943075  1
