# generated using pymatgen
data_KI
_symmetry_space_group_name_H-M   'P 1'
_cell_length_a   12.03492495
_cell_length_b   12.03493311
_cell_length_c   7.09387765
_cell_angle_alpha   90.00000228
_cell_angle_beta   90.00001174
_cell_angle_gamma   89.99994154
_symmetry_Int_Tables_number   1
_chemical_formula_structural   KI
_chemical_formula_sum   'K8 I8'
_cell_volume   1027.47381017
_cell_formula_units_Z   8
loop_
 _symmetry_equiv_pos_site_id
 _symmetry_equiv_pos_as_xyz
  1  'x, y, z'
loop_
 _atom_site_type_symbol
 _atom_site_label
 _atom_site_symmetry_multiplicity
 _atom_site_fract_x
 _atom_site_fract_y
 _atom_site_fract_z
 _atom_site_occupancy
  K  K0  1  0.64305485  0.14763719  0.99895455  1
  K  K1  1  0.85236337  0.64305543  0.00104531  1
  K  K2  1  0.14305498  0.64763698  0.50104704  1
  K  K3  1  0.14763675  0.35694454  0.00104744  1
  K  K4  1  0.85694498  0.35236308  0.50104552  1
  K  K5  1  0.35694532  0.85236283  0.99895304  1
  K  K6  1  0.35236298  0.14305494  0.49895247  1
  K  K7  1  0.64763687  0.85694481  0.49895462  1
  I  I8  1  0.14612620  0.65056597  0.00111248  1
  I  I9  1  0.34943405  0.14612657  -0.00111265  1
  I  I10  1  0.64612624  0.15056642  0.49888984  1
  I  I11  1  0.65056585  0.85387334  -0.00111036  1
  I  I12  1  0.35387390  0.84943374  0.49888760  1
  I  I13  1  0.85387362  0.34943413  0.00111013  1
  I  I14  1  0.84943443  0.64612687  0.50111033  1
  I  I15  1  0.15056561  0.35387317  0.50111263  1
