# generated using pymatgen
data_KI
_symmetry_space_group_name_H-M   'P 1'
_cell_length_a   8.79582029
_cell_length_b   5.07231860
_cell_length_c   14.35671063
_cell_angle_alpha   89.99999996
_cell_angle_beta   144.58286706
_cell_angle_gamma   90.00000556
_symmetry_Int_Tables_number   1
_chemical_formula_structural   KI
_chemical_formula_sum   'K4 I4'
_cell_volume   371.20166296
_cell_formula_units_Z   4
loop_
 _symmetry_equiv_pos_site_id
 _symmetry_equiv_pos_as_xyz
  1  'x, y, z'
loop_
 _atom_site_type_symbol
 _atom_site_label
 _atom_site_symmetry_multiplicity
 _atom_site_fract_x
 _atom_site_fract_y
 _atom_site_fract_z
 _atom_site_occupancy
  K  K0  1  0.75175811  0.75021775  0.25143275  1
  K  K1  1  0.24824186  0.25021769  0.24856720  1
  K  K2  1  0.24824186  0.24978224  0.74856724  1
  K  K3  1  0.75175813  0.74978235  0.75143281  1
  I  I4  1  0.74752873  0.75002637  0.49917924  1
  I  I5  1  0.25247143  0.25002640  0.00082086  1
  I  I6  1  0.25247128  0.24997361  0.50082076  1
  I  I7  1  0.74752860  0.74997358  -0.00082085  1
