# generated using pymatgen
data_KI
_symmetry_space_group_name_H-M   'P 1'
_cell_length_a   12.48563116
_cell_length_b   12.48564574
_cell_length_c   6.97157358
_cell_angle_alpha   89.99767606
_cell_angle_beta   90.00253573
_cell_angle_gamma   120.00606879
_symmetry_Int_Tables_number   1
_chemical_formula_structural   KI
_chemical_formula_sum   'K9 I9'
_cell_volume   941.14468657
_cell_formula_units_Z   9
loop_
 _symmetry_equiv_pos_site_id
 _symmetry_equiv_pos_as_xyz
  1  'x, y, z'
loop_
 _atom_site_type_symbol
 _atom_site_label
 _atom_site_symmetry_multiplicity
 _atom_site_fract_x
 _atom_site_fract_y
 _atom_site_fract_z
 _atom_site_occupancy
  K  K0  1  0.83424515  0.66835844  0.19436807  1
  K  K1  1  0.66498059  0.83255456  0.86102325  1
  K  K2  1  0.16757934  0.33502666  0.86103588  1
  K  K3  1  0.99831397  0.49922099  0.52768988  1
  K  K4  1  0.50091200  0.00169199  0.52770152  1
  K  K5  1  0.50078262  0.49907725  0.52770239  1
  K  K6  1  0.33164614  0.16588733  0.19435751  1
  K  K7  1  0.16744862  0.83241147  0.86103437  1
  K  K8  1  0.83411522  0.16574439  0.19436791  1
  I  I9  1  0.99113483  0.49538702  0.02805338  1
  I  I10  1  0.83794366  0.16241944  0.69472993  1
  I  I11  1  0.32446791  0.16205368  0.69472091  1
  I  I12  1  0.17127670  0.82908639  0.36139619  1
  I  I13  1  0.65780103  0.82872011  0.36138682  1
  I  I14  1  0.17091413  0.34220277  0.36139827  1
  I  I15  1  0.50461029  0.49575265  0.02806410  1
  I  I16  1  0.83758041  0.67553545  0.69473072  1
  I  I17  1  0.50424738  0.00886940  0.02806420  1
