# generated using pymatgen
data_NaI
_symmetry_space_group_name_H-M   'P 1'
_cell_length_a   4.56513920
_cell_length_b   7.88588123
_cell_length_c   11.96956383
_cell_angle_alpha   89.99998914
_cell_angle_beta   139.66346746
_cell_angle_gamma   90.00025683
_symmetry_Int_Tables_number   1
_chemical_formula_structural   NaI
_chemical_formula_sum   'Na4 I4'
_cell_volume   278.91510987
_cell_formula_units_Z   4
loop_
 _symmetry_equiv_pos_site_id
 _symmetry_equiv_pos_as_xyz
  1  'x, y, z'
loop_
 _atom_site_type_symbol
 _atom_site_label
 _atom_site_symmetry_multiplicity
 _atom_site_fract_x
 _atom_site_fract_y
 _atom_site_fract_z
 _atom_site_occupancy
  Na  Na0  1  0.67546508  0.00041855  0.16455553  1
  Na  Na1  1  0.17546548  0.50041837  0.16455548  1
  Na  Na2  1  0.67546085  0.99958075  0.66455605  1
  Na  Na3  1  0.17546054  0.49958092  0.66455611  1
  I  I4  1  0.17495713  0.66549097  0.91441925  1
  I  I5  1  0.67495677  0.16549095  0.91441913  1
  I  I6  1  0.17496036  0.33450975  0.41441936  1
  I  I7  1  0.67496027  0.83450974  0.41441928  1
