# generated using pymatgen
data_LiBr
_symmetry_space_group_name_H-M   'P 1'
_cell_length_a   12.98356291
_cell_length_b   12.07143405
_cell_length_c   6.76158221
_cell_angle_alpha   90.00011221
_cell_angle_beta   90.00000260
_cell_angle_gamma   90.00000939
_symmetry_Int_Tables_number   1
_chemical_formula_structural   LiBr
_chemical_formula_sum   'Li16 Br16'
_cell_volume   1059.74428986
_cell_formula_units_Z   16
loop_
 _symmetry_equiv_pos_site_id
 _symmetry_equiv_pos_as_xyz
  1  'x, y, z'
loop_
 _atom_site_type_symbol
 _atom_site_label
 _atom_site_symmetry_multiplicity
 _atom_site_fract_x
 _atom_site_fract_y
 _atom_site_fract_z
 _atom_site_occupancy
  Li  Li0  1  0.11842415  0.74967304  0.85679164  1
  Li  Li1  1  0.88157612  0.25032749  0.85679101  1
  Li  Li2  1  0.13157586  -0.00032728  0.10679045  1
  Li  Li3  1  0.38157638  0.25032678  0.35679148  1
  Li  Li4  1  0.63157534  -0.00032787  0.60679289  1
  Li  Li5  1  0.36842401  0.50032855  0.10679544  1
  Li  Li6  1  0.61842414  0.74967152  0.35679374  1
  Li  Li7  1  0.63157632  0.49967230  0.10679141  1
  Li  Li8  1  0.36842384  0.00032774  0.60679141  1
  Li  Li9  1  0.61842395  0.24967284  0.85679105  1
  Li  Li10  1  0.38157551  0.75032698  0.85679255  1
  Li  Li11  1  0.13157613  0.49967293  0.60679145  1
  Li  Li12  1  0.86842458  0.50032739  0.60679166  1
  Li  Li13  1  0.86842354  0.00032725  0.10679285  1
  Li  Li14  1  0.11842395  0.24967315  0.35679030  1
  Li  Li15  1  0.88157646  0.75032873  0.35679417  1
  Br  Br16  1  0.25004647  0.59021778  0.85667028  1
  Br  Br17  1  0.74995267  0.40978170  0.85666654  1
  Br  Br18  1  -0.00004635  0.84021833  0.10667062  1
  Br  Br19  1  0.24995339  0.40978146  0.35666935  1
  Br  Br20  1  0.49995269  0.84021792  0.60667062  1
  Br  Br21  1  0.50004678  0.65978188  0.10667009  1
  Br  Br22  1  0.75004817  0.59021843  0.35666904  1
  Br  Br23  1  0.49995385  0.34021866  0.10667116  1
  Br  Br24  1  0.50004592  0.15978137  0.60667062  1
  Br  Br25  1  0.75004674  0.09021797  0.85666874  1
  Br  Br26  1  0.24995278  0.90978199  0.85666706  1
  Br  Br27  1  -0.00004573  0.34021819  0.60667151  1
  Br  Br28  1  0.00004688  0.65978139  0.60666973  1
  Br  Br29  1  0.00004586  0.15978172  0.10666979  1
  Br  Br30  1  0.25004679  0.09021832  0.35666868  1
  Br  Br31  1  0.74995281  0.90978137  0.35667018  1
