# generated using pymatgen
data_LiI
_symmetry_space_group_name_H-M   'P 1'
_cell_length_a   7.35315985
_cell_length_b   4.24908561
_cell_length_c   6.91029351
_cell_angle_alpha   90.00014284
_cell_angle_beta   89.99988156
_cell_angle_gamma   90.00021171
_symmetry_Int_Tables_number   1
_chemical_formula_structural   LiI
_chemical_formula_sum   'Li4 I4'
_cell_volume   215.90663180
_cell_formula_units_Z   4
loop_
 _symmetry_equiv_pos_site_id
 _symmetry_equiv_pos_as_xyz
  1  'x, y, z'
loop_
 _atom_site_type_symbol
 _atom_site_label
 _atom_site_symmetry_multiplicity
 _atom_site_fract_x
 _atom_site_fract_y
 _atom_site_fract_z
 _atom_site_occupancy
  Li  Li0  1  0.99833631  0.49956310  0.69570517  1
  Li  Li1  1  0.49833349  0.00043424  0.69570782  1
  Li  Li2  1  0.00166289  0.50043809  0.19570601  1
  Li  Li3  1  0.50166594  -0.00043486  0.19570694  1
  I  I4  1  0.16661435  -0.00138234  0.44748566  1
  I  I5  1  0.66661415  0.50138316  0.44748599  1
  I  I6  1  0.83338659  0.00138107  0.94748539  1
  I  I7  1  0.33338628  0.49861754  0.94748665  1
