# generated using pymatgen
data_KI
_symmetry_space_group_name_H-M   'P 1'
_cell_length_a   7.17995401
_cell_length_b   7.19033139
_cell_length_c   10.10696206
_cell_angle_alpha   89.99999969
_cell_angle_beta   134.74422953
_cell_angle_gamma   89.99999998
_symmetry_Int_Tables_number   1
_chemical_formula_structural   KI
_chemical_formula_sum   'K4 I4'
_cell_volume   370.60074220
_cell_formula_units_Z   4
loop_
 _symmetry_equiv_pos_site_id
 _symmetry_equiv_pos_as_xyz
  1  'x, y, z'
loop_
 _atom_site_type_symbol
 _atom_site_label
 _atom_site_symmetry_multiplicity
 _atom_site_fract_x
 _atom_site_fract_y
 _atom_site_fract_z
 _atom_site_occupancy
  K  K0  1  0.24831464  0.25014191  -0.00185823  1
  K  K1  1  0.75168549  0.75014192  0.50185828  1
  K  K2  1  0.75168524  0.74985809  0.00185812  1
  K  K3  1  0.24831462  0.24985808  0.49814183  1
  I  I4  1  0.25180600  0.75034012  0.00121843  1
  I  I5  1  0.74819400  0.25034013  0.49878166  1
  I  I6  1  0.74819409  0.24965988  -0.00121834  1
  I  I7  1  0.25180592  0.74965988  0.50121826  1
