# generated using pymatgen
data_LiI
_symmetry_space_group_name_H-M   'P 1'
_cell_length_a   12.37880659
_cell_length_b   12.01137677
_cell_length_c   7.74622880
_cell_angle_alpha   93.45964654
_cell_angle_beta   86.86265785
_cell_angle_gamma   121.87226222
_symmetry_Int_Tables_number   1
_chemical_formula_structural   LiI
_chemical_formula_sum   'Li12 I12'
_cell_volume   975.96812579
_cell_formula_units_Z   12
loop_
 _symmetry_equiv_pos_site_id
 _symmetry_equiv_pos_as_xyz
  1  'x, y, z'
loop_
 _atom_site_type_symbol
 _atom_site_label
 _atom_site_symmetry_multiplicity
 _atom_site_fract_x
 _atom_site_fract_y
 _atom_site_fract_z
 _atom_site_occupancy
  Li  Li0  1  -0.26459081  0.14934957  0.05332534  1
  Li  Li1  1  0.18569033  0.80816916  0.60508577  1
  Li  Li2  1  0.48972701  0.06299243  0.56983125  1
  Li  Li3  1  0.28586023  0.06796777  0.10099630  1
  Li  Li4  1  0.69568815  0.73578640  0.82310084  1
  Li  Li5  1  -0.04106713  0.57462336  0.09020460  1
  Li  Li6  1  0.89075089  0.38127099  0.62089435  1
  Li  Li7  1  0.34933455  0.30660218  0.40961850  1
  Li  Li8  1  0.76709939  0.64711472  0.41355426  1
  Li  Li9  1  0.65535841  -0.08556736  0.40990652  1
  Li  Li10  1  0.41490980  0.86682184  0.91195400  1
  Li  Li11  1  0.51903366  0.38424782  -0.07513299  1
  I  I12  1  0.83484839  0.88735454  0.55333039  1
  I  I13  1  0.28730990  0.29632164  0.08275132  1
  I  I14  1  -0.02956242  0.60521363  0.45579417  1
  I  I15  1  0.53853772  0.49046941  0.60695977  1
  I  I16  1  0.72462684  0.18038682  0.41313923  1
  I  I17  1  0.40826272  0.79727736  0.56596162  1
  I  I18  1  0.52841722  0.15165639  -0.08136837  1
  I  I19  1  0.16595579  0.81140214  0.96546205  1
  I  I20  1  0.61703814  0.87084263  0.05065834  1
  I  I21  1  -0.04450564  0.36218824  0.93302650  1
  I  I22  1  0.74363334  0.59398852  0.05732421  1
  I  I23  1  0.27764351  0.05351981  0.46362204  1
