# generated using pymatgen
data_LiBr
_symmetry_space_group_name_H-M   'P 1'
_cell_length_a   6.70633090
_cell_length_b   6.70633823
_cell_length_c   8.68723367
_cell_angle_alpha   90.00330060
_cell_angle_beta   89.99665790
_cell_angle_gamma   120.01453769
_symmetry_Int_Tables_number   1
_chemical_formula_structural   LiBr
_chemical_formula_sum   'Li6 Br6'
_cell_volume   338.31318738
_cell_formula_units_Z   6
loop_
 _symmetry_equiv_pos_site_id
 _symmetry_equiv_pos_as_xyz
  1  'x, y, z'
loop_
 _atom_site_type_symbol
 _atom_site_label
 _atom_site_symmetry_multiplicity
 _atom_site_fract_x
 _atom_site_fract_y
 _atom_site_fract_z
 _atom_site_occupancy
  Li  Li0  1  0.73979667  0.30726643  0.82491172  1
  Li  Li1  1  0.26019510  0.56757272  0.84172953  1
  Li  Li2  1  0.56757101  0.26019498  0.15827068  1
  Li  Li3  1  0.43251483  0.69272811  0.50835964  1
  Li  Li4  1  0.69272822  0.43251476  0.49164032  1
  Li  Li5  1  0.30726676  0.73979576  0.17508828  1
  Br  Br6  1  0.36942064  -0.01629547  0.93359886  1
  Br  Br7  1  0.63050799  0.61427104  0.73319945  1
  Br  Br8  1  0.61427153  0.63050780  0.26680049  1
  Br  Br9  1  0.38580062  0.01622078  0.39978418  1
  Br  Br10  1  0.01622167  0.38580154  0.60021599  1
  Br  Br11  1  -0.01629503  0.36942154  0.06640086  1
