# generated using pymatgen
data_KBr
_symmetry_space_group_name_H-M   'P 1'
_cell_length_a   7.94567657
_cell_length_b   4.63913146
_cell_length_c   8.22473749
_cell_angle_alpha   89.99991612
_cell_angle_beta   90.00000744
_cell_angle_gamma   89.99999238
_symmetry_Int_Tables_number   1
_chemical_formula_structural   KBr
_chemical_formula_sum   'K4 Br4'
_cell_volume   303.17236206
_cell_formula_units_Z   4
loop_
 _symmetry_equiv_pos_site_id
 _symmetry_equiv_pos_as_xyz
  1  'x, y, z'
loop_
 _atom_site_type_symbol
 _atom_site_label
 _atom_site_symmetry_multiplicity
 _atom_site_fract_x
 _atom_site_fract_y
 _atom_site_fract_z
 _atom_site_occupancy
  K  K0  1  0.08454857  0.25283149  0.48377206  1
  K  K1  1  0.58454844  0.74716922  0.48377208  1
  K  K2  1  0.91545167  0.74716772  -0.01622804  1
  K  K3  1  0.41545189  0.25283246  -0.01622798  1
  Br  Br4  1  0.25038099  0.75258689  0.73461099  1
  Br  Br5  1  0.75038107  0.24741256  0.73461095  1
  Br  Br6  1  0.74961871  0.24741317  0.23461052  1
  Br  Br7  1  0.24961866  0.75258649  0.23461040  1
