# generated using pymatgen
data_LiBr
_symmetry_space_group_name_H-M   'P 1'
_cell_length_a   10.01950341
_cell_length_b   10.01950623
_cell_length_c   8.46997909
_cell_angle_alpha   89.99998222
_cell_angle_beta   89.99997927
_cell_angle_gamma   90.00009172
_symmetry_Int_Tables_number   1
_chemical_formula_structural   LiBr
_chemical_formula_sum   'Li16 Br16'
_cell_volume   850.30524018
_cell_formula_units_Z   16
loop_
 _symmetry_equiv_pos_site_id
 _symmetry_equiv_pos_as_xyz
  1  'x, y, z'
loop_
 _atom_site_type_symbol
 _atom_site_label
 _atom_site_symmetry_multiplicity
 _atom_site_fract_x
 _atom_site_fract_y
 _atom_site_fract_z
 _atom_site_occupancy
  Li  Li0  1  0.66944827  0.00049839  0.19754789  1
  Li  Li1  1  0.50050257  0.66945002  0.44754823  1
  Li  Li2  1  0.33055058  0.00050027  0.69754720  1
  Li  Li3  1  0.33055044  -0.00049928  0.19754732  1
  Li  Li4  1  0.49949721  0.33054979  0.44754740  1
  Li  Li5  1  -0.00050233  0.16945019  0.44754780  1
  Li  Li6  1  0.00050179  0.83055081  0.44754723  1
  Li  Li7  1  0.49949861  0.66944898  0.94754779  1
  Li  Li8  1  0.50050225  0.33055073  0.94754758  1
  Li  Li9  1  0.83055133  0.49949797  0.69754716  1
  Li  Li10  1  -0.00050275  0.83055029  0.94754728  1
  Li  Li11  1  0.16944960  0.50050213  0.69754784  1
  Li  Li12  1  0.00050269  0.16944928  0.94754784  1
  Li  Li13  1  0.83055075  0.50049986  0.19754763  1
  Li  Li14  1  0.16944932  0.49950007  0.19754781  1
  Li  Li15  1  0.66944960  -0.00049961  0.69754802  1
  Br  Br16  1  0.69202597  0.49949884  0.44752029  1
  Br  Br17  1  -0.00050034  0.69202607  0.69751983  1
  Br  Br18  1  0.30797427  0.49949926  0.94752049  1
  Br  Br19  1  0.30797405  0.50050096  0.44752032  1
  Br  Br20  1  0.00050107  0.30797407  0.69752068  1
  Br  Br21  1  0.50049985  0.19202614  0.69752042  1
  Br  Br22  1  0.49950031  0.80797430  0.69752079  1
  Br  Br23  1  0.00049958  0.69202592  0.19752042  1
  Br  Br24  1  -0.00049948  0.30797417  0.19752035  1
  Br  Br25  1  0.80797385  0.00050098  0.94752089  1
  Br  Br26  1  0.50049854  0.80797343  0.19752057  1
  Br  Br27  1  0.19202598  -0.00050130  0.94751998  1
  Br  Br28  1  0.49950038  0.19202582  0.19752024  1
  Br  Br29  1  0.80797360  -0.00050055  0.44752013  1
  Br  Br30  1  0.19202584  0.00050154  0.44752008  1
  Br  Br31  1  0.69202658  0.50050046  0.94752003  1
