# generated using pymatgen
data_LiI
_symmetry_space_group_name_H-M   'P 1'
_cell_length_a   8.71029725
_cell_length_b   8.71056868
_cell_length_c   14.05654893
_cell_angle_alpha   89.99830547
_cell_angle_beta   90.00290639
_cell_angle_gamma   89.99987179
_symmetry_Int_Tables_number   1
_chemical_formula_structural   LiI
_chemical_formula_sum   'Li16 I16'
_cell_volume   1066.49345227
_cell_formula_units_Z   16
loop_
 _symmetry_equiv_pos_site_id
 _symmetry_equiv_pos_as_xyz
  1  'x, y, z'
loop_
 _atom_site_type_symbol
 _atom_site_label
 _atom_site_symmetry_multiplicity
 _atom_site_fract_x
 _atom_site_fract_y
 _atom_site_fract_z
 _atom_site_occupancy
  Li  Li0  1  0.74846150  0.24898094  0.74973569  1
  Li  Li1  1  0.24897992  0.25154505  0.25026725  1
  Li  Li2  1  0.25174296  0.74931944  0.50010017  1
  Li  Li3  1  0.74897939  0.75154473  0.75027261  1
  Li  Li4  1  0.75174592  0.24931736  0.00009732  1
  Li  Li5  1  0.25102687  0.24845628  0.75027128  1
  Li  Li6  1  0.24845986  0.74897928  0.24972704  1
  Li  Li7  1  0.75154688  0.25102399  0.24973073  1
  Li  Li8  1  0.24932041  0.24825343  -0.00009805  1
  Li  Li9  1  0.24825308  0.75067616  0.00010136  1
  Li  Li10  1  0.75067977  0.75174493  -0.00010128  1
  Li  Li11  1  0.25155106  0.75102874  0.74973199  1
  Li  Li12  1  0.75102439  0.74845609  0.25027103  1
  Li  Li13  1  0.74931940  0.74825549  0.49989804  1
  Li  Li14  1  0.74825289  0.25067639  0.50009544  1
  Li  Li15  1  0.25067714  0.25174841  0.49989951  1
  I  I16  1  0.24978607  0.49958180  0.12428971  1
  I  I17  1  0.49958579  0.75021361  0.87571012  1
  I  I18  1  0.75019503  -0.00011385  0.12574450  1
  I  I19  1  -0.00043217  0.25021355  0.37571249  1
  I  I20  1  0.25019187  0.49989077  0.62574405  1
  I  I21  1  0.00041003  0.74979251  0.37571262  1
  I  I22  1  0.74978328  -0.00042032  0.62428834  1
  I  I23  1  0.25020456  0.00042417  0.62428811  1
  I  I24  1  0.49990276  0.74979709  0.37425833  1
  I  I25  1  0.74979867  0.50010886  0.62574243  1
  I  I26  1  0.50012089  0.25019022  0.37425840  1
  I  I27  1  0.75020716  0.50042530  0.12428906  1
  I  I28  1  0.50043051  0.24979219  0.87570882  1
  I  I29  1  -0.00011336  0.24979917  0.87425512  1
  I  I30  1  0.24980201  0.00010581  0.12574356  1
  I  I31  1  0.00010548  0.75019239  0.87425421  1
