# generated using pymatgen
data_LiI
_symmetry_space_group_name_H-M   'P 1'
_cell_length_a   13.22171316
_cell_length_b   13.22190065
_cell_length_c   13.22209992
_cell_angle_alpha   89.99682560
_cell_angle_beta   90.00526523
_cell_angle_gamma   90.00313993
_symmetry_Int_Tables_number   1
_chemical_formula_structural   LiI
_chemical_formula_sum   'Li24 I24'
_cell_volume   2311.43695442
_cell_formula_units_Z   24
loop_
 _symmetry_equiv_pos_site_id
 _symmetry_equiv_pos_as_xyz
  1  'x, y, z'
loop_
 _atom_site_type_symbol
 _atom_site_label
 _atom_site_symmetry_multiplicity
 _atom_site_fract_x
 _atom_site_fract_y
 _atom_site_fract_z
 _atom_site_occupancy
  Li  Li0  1  0.57037743  0.73837615  0.83815566  1
  Li  Li1  1  0.07044120  0.76182287  0.16188490  1
  Li  Li2  1  0.33820251  0.57039895  0.76167906  1
  Li  Li3  1  0.33825532  0.92951763  0.26164370  1
  Li  Li4  1  0.23835686  0.66203250  0.42965808  1
  Li  Li5  1  0.83813172  0.57037306  0.73833920  1
  Li  Li6  1  0.16183118  0.07040453  0.76176822  1
  Li  Li7  1  0.66189147  0.42965681  0.23825202  1
  Li  Li8  1  0.26159395  0.33830059  0.92948579  1
  Li  Li9  1  0.73836979  0.83820208  0.57043727  1
  Li  Li10  1  0.76165016  0.16195196  0.07032265  1
  Li  Li11  1  0.42964293  0.23829195  0.66196738  1
  Li  Li12  1  0.92941004  0.26171182  0.33823898  1
  Li  Li13  1  0.16186618  0.42957832  0.26174566  1
  Li  Li14  1  0.83812809  0.92951658  0.23828497  1
  Li  Li15  1  0.66186638  0.07032013  0.73822556  1
  Li  Li16  1  0.76160260  0.33813564  0.57038011  1
  Li  Li17  1  0.73827346  0.66185939  0.07036092  1
  Li  Li18  1  0.26173515  0.16178698  0.42949591  1
  Li  Li19  1  0.23834835  0.83802168  0.92960762  1
  Li  Li20  1  0.57043849  0.76160346  0.33819106  1
  Li  Li21  1  0.07042578  0.73818118  0.66190137  1
  Li  Li22  1  0.42961561  0.26168972  0.16186469  1
  Li  Li23  1  0.92945955  0.23825831  0.83815231  1
  I  I24  1  0.38368394  0.70019834  0.91037596  1
  I  I25  1  -0.11633413  0.80007720  0.08926045  1
  I  I26  1  0.41056187  0.38367207  0.79998435  1
  I  I27  1  0.41062485  0.11625734  0.29985366  1
  I  I28  1  0.20017714  0.58942262  0.61625345  1
  I  I29  1  0.91044343  0.38360938  0.70012802  1
  I  I30  1  0.08934705  -0.11645402  0.80008970  1
  I  I31  1  0.58952048  0.61637544  0.20013183  1
  I  I32  1  0.29986934  0.41060755  0.11636044  1
  I  I33  1  0.70010590  0.91053306  0.38359060  1
  I  I34  1  0.79994450  0.08935597  -0.11630317  1
  I  I35  1  0.61630433  0.20013030  0.58949981  1
  I  I36  1  0.11627291  0.29993397  0.41072563  1
  I  I37  1  0.08939129  0.61639782  0.30000346  1
  I  I38  1  0.91051613  0.11634833  0.20015859  1
  I  I39  1  0.58952068  -0.11639975  0.70003305  1
  I  I40  1  0.79986997  0.41061892  0.38375078  1
  I  I41  1  0.70001474  0.58948205  -0.11644982  1
  I  I42  1  0.29999036  0.08932277  0.61640298  1
  I  I43  1  0.20032377  0.91048769  0.11620681  1
  I  I44  1  0.38375482  0.79992738  0.41051900  1
  I  I45  1  -0.11637680  0.69993141  0.58937397  1
  I  I46  1  0.61632571  0.30000892  0.08939614  1
  I  I47  1  0.11623350  0.20016294  0.91061122  1
