# generated using pymatgen
data_LiBr
_symmetry_space_group_name_H-M   'P 1'
_cell_length_a   12.27218489
_cell_length_b   10.91602124
_cell_length_c   7.74997006
_cell_angle_alpha   89.99998836
_cell_angle_beta   90.00000890
_cell_angle_gamma   90.00908640
_symmetry_Int_Tables_number   1
_chemical_formula_structural   LiBr
_chemical_formula_sum   'Li16 Br16'
_cell_volume   1038.21256599
_cell_formula_units_Z   16
loop_
 _symmetry_equiv_pos_site_id
 _symmetry_equiv_pos_as_xyz
  1  'x, y, z'
loop_
 _atom_site_type_symbol
 _atom_site_label
 _atom_site_symmetry_multiplicity
 _atom_site_fract_x
 _atom_site_fract_y
 _atom_site_fract_z
 _atom_site_occupancy
  Li  Li0  1  0.36509784  0.50046357  0.14855329  1
  Li  Li1  1  0.63490226  0.49953614  0.14855345  1
  Li  Li2  1  0.88483943  0.75052090  0.39858396  1
  Li  Li3  1  0.13490230  0.49953625  0.64855334  1
  Li  Li4  1  0.38483920  0.75052079  0.89858396  1
  Li  Li5  1  0.61516040  0.74947893  0.39858470  1
  Li  Li6  1  0.86509783  0.50046360  0.64855312  1
  Li  Li7  1  0.38483951  0.25052121  0.39858462  1
  Li  Li8  1  0.61516052  0.24947884  0.89858493  1
  Li  Li9  1  0.86509778  0.00046386  0.14855349  1
  Li  Li10  1  0.13490235  -0.00046363  0.14855352  1
  Li  Li11  1  0.88483948  0.25052099  0.89858433  1
  Li  Li12  1  0.11516058  0.74947911  0.89858444  1
  Li  Li13  1  0.11516038  0.24947875  0.39858503  1
  Li  Li14  1  0.36509784  0.00046360  0.64855297  1
  Li  Li15  1  0.63490236  -0.00046340  0.64855320  1
  Br  Br16  1  0.49992707  0.32076972  0.14867754  1
  Br  Br17  1  0.50007311  0.67923020  0.14867682  1
  Br  Br18  1  0.75006208  0.57076107  0.39871270  1
  Br  Br19  1  0.00007300  0.67923024  0.64867652  1
  Br  Br20  1  0.25006216  0.57076110  0.89871237  1
  Br  Br21  1  0.74993778  0.92923891  0.39871245  1
  Br  Br22  1  -0.00007297  0.32076982  0.64867711  1
  Br  Br23  1  0.25006220  0.07076156  0.39871274  1
  Br  Br24  1  0.74993778  0.42923851  0.89871237  1
  Br  Br25  1  -0.00007308  0.82077003  0.14867698  1
  Br  Br26  1  0.00007297  0.17923015  0.14867723  1
  Br  Br27  1  0.75006229  0.07076146  0.89871229  1
  Br  Br28  1  0.24993789  0.92923889  0.89871229  1
  Br  Br29  1  0.24993762  0.42923860  0.39871222  1
  Br  Br30  1  0.49992709  0.82077003  0.64867675  1
  Br  Br31  1  0.50007297  0.17923022  0.64867719  1
