# generated using pymatgen
data_LiBr
_symmetry_space_group_name_H-M   'P 1'
_cell_length_a   11.00741125
_cell_length_b   5.51471024
_cell_length_c   5.50213673
_cell_angle_alpha   89.99994587
_cell_angle_beta   89.99999517
_cell_angle_gamma   89.99999911
_symmetry_Int_Tables_number   1
_chemical_formula_structural   LiBr
_chemical_formula_sum   'Li8 Br8'
_cell_volume   333.99446466
_cell_formula_units_Z   8
loop_
 _symmetry_equiv_pos_site_id
 _symmetry_equiv_pos_as_xyz
  1  'x, y, z'
loop_
 _atom_site_type_symbol
 _atom_site_label
 _atom_site_symmetry_multiplicity
 _atom_site_fract_x
 _atom_site_fract_y
 _atom_site_fract_z
 _atom_site_occupancy
  Li  Li0  1  0.12444482  0.24866989  0.51371811  1
  Li  Li1  1  0.62444820  0.75135788  0.01372582  1
  Li  Li2  1  0.37555471  0.74864984  0.51372114  1
  Li  Li3  1  0.87555447  0.75134094  0.51372719  1
  Li  Li4  1  0.62444214  0.25132415  0.51372498  1
  Li  Li5  1  0.37555112  0.24866792  0.01373341  1
  Li  Li6  1  0.87555167  0.25132973  0.01371923  1
  Li  Li7  1  0.12444959  0.74865673  0.01372470  1
  Br  Br8  1  0.37487378  0.74891433  0.01424563  1
  Br  Br9  1  0.87487248  0.25108776  0.51424718  1
  Br  Br10  1  0.12512777  0.24891406  0.01424691  1
  Br  Br11  1  0.62512636  0.25108734  0.01424348  1
  Br  Br12  1  0.87487374  0.75108565  0.01424936  1
  Br  Br13  1  0.12512901  0.74891459  0.51424849  1
  Br  Br14  1  0.62512765  0.75108669  0.51424572  1
  Br  Br15  1  0.37487247  0.24891250  0.51424497  1
