# generated using pymatgen
data_LiI
_symmetry_space_group_name_H-M   'P 1'
_cell_length_a   7.58969970
_cell_length_b   9.50081516
_cell_length_c   7.67190735
_cell_angle_alpha   89.99988902
_cell_angle_beta   89.99995933
_cell_angle_gamma   89.99998754
_symmetry_Int_Tables_number   1
_chemical_formula_structural   LiI
_chemical_formula_sum   'Li8 I8'
_cell_volume   553.20845756
_cell_formula_units_Z   8
loop_
 _symmetry_equiv_pos_site_id
 _symmetry_equiv_pos_as_xyz
  1  'x, y, z'
loop_
 _atom_site_type_symbol
 _atom_site_label
 _atom_site_symmetry_multiplicity
 _atom_site_fract_x
 _atom_site_fract_y
 _atom_site_fract_z
 _atom_site_occupancy
  Li  Li0  1  0.14345668  0.63518284  0.42730246  1
  Li  Li1  1  0.14346160  0.36481925  0.92731559  1
  Li  Li2  1  0.64345827  0.86481833  0.57270213  1
  Li  Li3  1  0.35653818  0.86481792  0.92729794  1
  Li  Li4  1  0.85653949  0.63518049  0.07268220  1
  Li  Li5  1  0.35654082  0.13518269  0.42729770  1
  Li  Li6  1  0.64346258  0.13518187  0.07270231  1
  Li  Li7  1  0.85654187  0.36481687  0.57269734  1
  I  I8  1  0.22656487  0.37737228  0.57787969  1
  I  I9  1  0.22656117  0.62262931  0.07788361  1
  I  I10  1  0.72656570  0.12262740  0.42211923  1
  I  I11  1  0.27343801  0.12262863  0.07788166  1
  I  I12  1  0.77343929  0.37737066  -0.07788093  1
  I  I13  1  0.27343523  0.87737266  0.57788089  1
  I  I14  1  0.72656256  0.87737136  -0.07788182  1
  I  I15  1  0.77343368  0.62262745  0.42212000  1
