# generated using pymatgen
data_LiBr
_symmetry_space_group_name_H-M   'P 1'
_cell_length_a   3.95019931
_cell_length_b   3.95026978
_cell_length_c   13.05159432
_cell_angle_alpha   90.00625396
_cell_angle_beta   89.99875323
_cell_angle_gamma   89.99645883
_symmetry_Int_Tables_number   1
_chemical_formula_structural   LiBr
_chemical_formula_sum   'Li4 Br4'
_cell_volume   203.66168238
_cell_formula_units_Z   4
loop_
 _symmetry_equiv_pos_site_id
 _symmetry_equiv_pos_as_xyz
  1  'x, y, z'
loop_
 _atom_site_type_symbol
 _atom_site_label
 _atom_site_symmetry_multiplicity
 _atom_site_fract_x
 _atom_site_fract_y
 _atom_site_fract_z
 _atom_site_occupancy
  Li  Li0  1  0.50246874  0.50516505  0.85822029  1
  Li  Li1  1  0.50519612  0.49754332  0.10821955  1
  Li  Li2  1  0.49751782  0.49480236  0.35820884  1
  Li  Li3  1  0.49481714  0.50249165  0.60820585  1
  Br  Br4  1  0.49814338  0.00328987  0.73320250  1
  Br  Br5  1  0.00329783  0.50185814  0.98319301  1
  Br  Br6  1  0.50185172  0.99670770  0.23320225  1
  Br  Br7  1  0.99670724  0.49814191  0.48321110  1
