# generated using pymatgen
data_NaI
_symmetry_space_group_name_H-M   'P 1'
_cell_length_a   8.76975155
_cell_length_b   8.76980223
_cell_length_c   4.17464860
_cell_angle_alpha   89.96186109
_cell_angle_beta   89.97923159
_cell_angle_gamma   90.00263337
_symmetry_Int_Tables_number   1
_chemical_formula_structural   NaI
_chemical_formula_sum   'Na4 I4'
_cell_volume   321.06790110
_cell_formula_units_Z   4
loop_
 _symmetry_equiv_pos_site_id
 _symmetry_equiv_pos_as_xyz
  1  'x, y, z'
loop_
 _atom_site_type_symbol
 _atom_site_label
 _atom_site_symmetry_multiplicity
 _atom_site_fract_x
 _atom_site_fract_y
 _atom_site_fract_z
 _atom_site_occupancy
  Na  Na0  1  0.35853346  0.85176984  0.13139237  1
  Na  Na1  1  0.64146734  0.14823254  0.13158488  1
  Na  Na2  1  0.85176319  0.64146425  0.13133443  1
  Na  Na3  1  0.14823728  0.35853011  0.13164578  1
  I  I4  1  0.16257580  0.66121411  0.63182714  1
  I  I5  1  0.83742481  0.33878779  0.63128074  1
  I  I6  1  0.66120947  0.83742302  0.63125591  1
  I  I7  1  0.33878865  0.16257834  0.63186028  1
