# generated using pymatgen
data_LiBr
_symmetry_space_group_name_H-M   'P 1'
_cell_length_a   10.26370944
_cell_length_b   10.26372054
_cell_length_c   12.56732981
_cell_angle_alpha   90.00236436
_cell_angle_beta   89.99758820
_cell_angle_gamma   120.00773771
_symmetry_Int_Tables_number   1
_chemical_formula_structural   LiBr
_chemical_formula_sum   'Li18 Br18'
_cell_volume   1146.43369979
_cell_formula_units_Z   18
loop_
 _symmetry_equiv_pos_site_id
 _symmetry_equiv_pos_as_xyz
  1  'x, y, z'
loop_
 _atom_site_type_symbol
 _atom_site_label
 _atom_site_symmetry_multiplicity
 _atom_site_fract_x
 _atom_site_fract_y
 _atom_site_fract_z
 _atom_site_occupancy
  Li  Li0  1  0.58333690  0.91590563  0.07470806  1
  Li  Li1  1  0.58334301  0.66746002  0.57471723  1
  Li  Li2  1  0.41762930  0.08351939  0.24141585  1
  Li  Li3  1  0.66587128  0.58229676  0.24142647  1
  Li  Li4  1  0.75092941  0.00092671  0.40830196  1
  Li  Li5  1  0.08409715  0.66744175  0.07471830  1
  Li  Li6  1  0.66582603  0.08355511  0.74148400  1
  Li  Li7  1  0.41770257  0.33412919  0.74142654  1
  Li  Li8  1  0.33253992  0.41665698  0.07471746  1
  Li  Li9  1  0.33255693  0.91590195  0.57471861  1
  Li  Li10  1  0.91648220  0.58237178  0.74141591  1
  Li  Li11  1  0.91644419  0.33417365  0.24148342  1
  Li  Li12  1  -0.00092959  0.74996012  0.40832721  1
  Li  Li13  1  -0.00092652  0.24907227  0.90830147  1
  Li  Li14  1  0.08409550  0.41666326  0.57470786  1
  Li  Li15  1  0.75087389  0.74992031  0.90828846  1
  Li  Li16  1  0.25007921  0.24912498  0.40828866  1
  Li  Li17  1  0.25004072  0.00092895  0.90832700  1
  Br  Br18  1  0.58333698  0.66593557  0.07455949  1
  Br  Br19  1  0.58327945  -0.08269081  0.57457574  1
  Br  Br20  1  0.66729827  0.08324064  0.24124468  1
  Br  Br21  1  0.41591783  0.33270121  0.24122187  1
  Br  Br22  1  0.00063871  0.25076767  0.40775936  1
  Br  Br23  1  0.33403232  -0.08259911  0.07455686  1
  Br  Br24  1  0.41595761  0.08325889  0.74125727  1
  Br  Br25  1  0.66729949  0.58408181  0.74122149  1
  Br  Br26  1  0.08269061  0.41672015  0.07457539  1
  Br  Br27  1  0.08259780  0.66596579  0.57455622  1
  Br  Br28  1  -0.08324033  0.33270306  0.74124449  1
  Br  Br29  1  -0.08325829  0.58404219  0.24125812  1
  Br  Br30  1  0.74932368  0.74991758  0.40777618  1
  Br  Br31  1  0.74923329  -0.00063831  0.90775982  1
  Br  Br32  1  0.33406503  0.41666287  0.57455870  1
  Br  Br33  1  0.00063040  0.74987674  0.90776890  1
  Br  Br34  1  0.25012365  -0.00062992  0.40776883  1
  Br  Br35  1  0.25008140  0.25067521  0.90777682  1
