# generated using pymatgen
data_LiI
_symmetry_space_group_name_H-M   'P 1'
_cell_length_a   8.02139537
_cell_length_b   8.02154442
_cell_length_c   13.37457538
_cell_angle_alpha   90.00191930
_cell_angle_beta   90.00285123
_cell_angle_gamma   120.00465074
_symmetry_Int_Tables_number   1
_chemical_formula_structural   LiI
_chemical_formula_sum   'Li9 I9'
_cell_volume   745.24349521
_cell_formula_units_Z   9
loop_
 _symmetry_equiv_pos_site_id
 _symmetry_equiv_pos_as_xyz
  1  'x, y, z'
loop_
 _atom_site_type_symbol
 _atom_site_label
 _atom_site_symmetry_multiplicity
 _atom_site_fract_x
 _atom_site_fract_y
 _atom_site_fract_z
 _atom_site_occupancy
  Li  Li0  1  -0.00045400  0.66760364  0.86527722  1
  Li  Li1  1  0.66572592  -0.00138941  0.53194429  1
  Li  Li2  1  0.33287761  0.33427091  0.53194418  1
  Li  Li3  1  0.99906040  0.66527080  0.19861153  1
  Li  Li4  1  0.66621812  0.00094064  0.19861029  1
  Li  Li5  1  0.33472662  0.33378659  0.19861049  1
  Li  Li6  1  0.33239354  0.33194325  0.86527772  1
  Li  Li7  1  0.00138711  0.66711783  0.53194285  1
  Li  Li8  1  0.66805343  0.00044949  0.86527565  1
  I  I9  1  0.33386940  0.99949697  0.87367258  1
  I  I10  1  0.33383613  0.00103838  0.54033922  1
  I  I11  1  0.66720168  0.66616355  0.54033918  1
  I  I12  1  0.66717533  0.66770822  0.20700592  1
  I  I13  1  0.00054171  0.33283243  0.20700569  1
  I  I14  1  0.33229711  -0.00053396  0.20700552  1
  I  I15  1  0.00050369  0.33437088  0.87367222  1
  I  I16  1  0.99895881  0.33279819  0.54033861  1
  I  I17  1  0.66562740  0.66613160  0.87367209  1
