# generated using pymatgen
data_LiBr
_symmetry_space_group_name_H-M   'P 1'
_cell_length_a   12.17774440
_cell_length_b   12.17773620
_cell_length_c   6.81779383
_cell_angle_alpha   90.00540687
_cell_angle_beta   89.99453872
_cell_angle_gamma   119.99632811
_symmetry_Int_Tables_number   1
_chemical_formula_structural   LiBr
_chemical_formula_sum   'Li18 Br18'
_cell_volume   875.63674410
_cell_formula_units_Z   18
loop_
 _symmetry_equiv_pos_site_id
 _symmetry_equiv_pos_as_xyz
  1  'x, y, z'
loop_
 _atom_site_type_symbol
 _atom_site_label
 _atom_site_symmetry_multiplicity
 _atom_site_fract_x
 _atom_site_fract_y
 _atom_site_fract_z
 _atom_site_occupancy
  Li  Li0  1  0.50658180  0.62961145  0.56880637  1
  Li  Li1  1  0.50657711  0.87705012  0.06884695  1
  Li  Li2  1  0.70368157  0.15998226  0.73542059  1
  Li  Li3  1  0.45627072  0.29625707  0.73547340  1
  Li  Li4  1  0.03714675  0.21043100  0.90217466  1
  Li  Li5  1  0.37044552  0.87698639  0.56888534  1
  Li  Li6  1  0.45622590  0.16001317  0.23545729  1
  Li  Li7  1  0.70374203  0.54372811  0.23547631  1
  Li  Li8  1  0.12295080  0.49342368  0.56884851  1
  Li  Li9  1  0.12301068  0.62955200  0.06889097  1
  Li  Li10  1  0.84001904  0.29631796  0.23542041  1
  Li  Li11  1  0.83999079  0.54377631  0.73545634  1
  Li  Li12  1  0.78952876  0.82671418  0.90213893  1
  Li  Li13  1  0.78956823  0.96285195  0.40217584  1
  Li  Li14  1  0.37038687  0.49341915  0.06880923  1
  Li  Li15  1  0.03709056  0.82667200  0.40211142  1
  Li  Li16  1  0.17332921  0.96290946  0.90210670  1
  Li  Li17  1  0.17328960  0.21047261  0.40213725  1
  Br  Br18  1  0.63132516  0.12546862  0.08823145  1
  Br  Br19  1  0.63129156  0.50582128  0.58826110  1
  Br  Br20  1  0.20793637  0.03544568  0.25474478  1
  Br  Br21  1  0.82756777  0.79205685  0.25471213  1
  Br  Br22  1  0.54098805  0.83896311  0.42165438  1
  Br  Br23  1  0.87450502  0.50577930  0.08820848  1
  Br  Br24  1  0.82753353  0.03548486  0.75478322  1
  Br  Br25  1  0.20794228  0.17243101  0.75471135  1
  Br  Br26  1  0.49417756  0.36870742  0.08826520  1
  Br  Br27  1  0.49421919  0.12549366  0.58820894  1
  Br  Br28  1  -0.03544486  0.79206207  0.75474578  1
  Br  Br29  1  -0.03548512  0.17246305  0.25478300  1
  Br  Br30  1  0.16101579  0.70199496  0.42169232  1
  Br  Br31  1  0.16103749  0.45901366  0.92165209  1
  Br  Br32  1  0.87453021  0.36867560  0.58823019  1
  Br  Br33  1  0.54097650  0.70195997  0.92166749  1
  Br  Br34  1  0.29804135  0.45902466  0.42166803  1
  Br  Br35  1  0.29800621  0.83898539  0.92169340  1
