# generated using pymatgen
data_KBr
_symmetry_space_group_name_H-M   'P 1'
_cell_length_a   16.68174301
_cell_length_b   16.59847086
_cell_length_c   4.68683459
_cell_angle_alpha   90.01087133
_cell_angle_beta   90.00058072
_cell_angle_gamma   90.03016272
_symmetry_Int_Tables_number   1
_chemical_formula_structural   KBr
_chemical_formula_sum   'K16 Br16'
_cell_volume   1297.74410506
_cell_formula_units_Z   16
loop_
 _symmetry_equiv_pos_site_id
 _symmetry_equiv_pos_as_xyz
  1  'x, y, z'
loop_
 _atom_site_type_symbol
 _atom_site_label
 _atom_site_symmetry_multiplicity
 _atom_site_fract_x
 _atom_site_fract_y
 _atom_site_fract_z
 _atom_site_occupancy
  K  K0  1  0.61829332  0.22766064  0.41836987  1
  K  K1  1  0.38170207  0.77234890  0.41836939  1
  K  K2  1  0.63173633  0.47766904  0.66787587  1
  K  K3  1  0.88170209  0.77234892  0.91836913  1
  K  K4  1  0.13173633  0.47766901  0.16787614  1
  K  K5  1  0.86826822  0.02234088  0.66787522  1
  K  K6  1  0.11829331  0.22766060  0.91836972  1
  K  K7  1  0.13173585  0.97766898  0.66787785  1
  K  K8  1  0.86826857  0.52234101  0.16787460  1
  K  K9  1  0.11829322  0.72766073  0.41837175  1
  K  K10  1  0.88170241  0.27234893  0.41836675  1
  K  K11  1  0.63173585  0.97766897  0.16787795  1
  K  K12  1  0.36826821  0.02234088  0.16787511  1
  K  K13  1  0.36826858  0.52234100  0.66787486  1
  K  K14  1  0.61829322  0.72766072  0.91837151  1
  K  K15  1  0.38170243  0.27234894  0.91836650  1
  Br  Br16  1  0.52204730  0.12925700  0.92399408  1
  Br  Br17  1  0.47795522  0.87073288  0.92412175  1
  Br  Br18  1  0.72793869  0.37920965  0.17344972  1
  Br  Br19  1  0.97795524  0.87073290  0.42412156  1
  Br  Br20  1  0.22793868  0.37920965  0.67344995  1
  Br  Br21  1  0.77205870  0.12078066  0.17357258  1
  Br  Br22  1  0.02204728  0.12925698  0.42399396  1
  Br  Br23  1  0.22793833  0.87920967  0.17345136  1
  Br  Br24  1  0.77205889  0.62078083  0.67357164  1
  Br  Br25  1  0.02204735  0.62925720  0.92399615  1
  Br  Br26  1  0.97795554  0.37073303  0.92411919  1
  Br  Br27  1  0.72793831  0.87920968  0.67345144  1
  Br  Br28  1  0.27205872  0.12078065  0.67357244  1
  Br  Br29  1  0.27205886  0.62078080  0.17357191  1
  Br  Br30  1  0.52204732  0.62925719  0.42399596  1
  Br  Br31  1  0.47795555  0.37073306  0.42411898  1
