# generated using pymatgen
data_NaI
_symmetry_space_group_name_H-M   'P 1'
_cell_length_a   6.51986436
_cell_length_b   9.54715766
_cell_length_c   5.44001163
_cell_angle_alpha   89.98318673
_cell_angle_beta   89.99999577
_cell_angle_gamma   89.99981823
_symmetry_Int_Tables_number   1
_chemical_formula_structural   NaI
_chemical_formula_sum   'Na4 I4'
_cell_volume   338.61989067
_cell_formula_units_Z   4
loop_
 _symmetry_equiv_pos_site_id
 _symmetry_equiv_pos_as_xyz
  1  'x, y, z'
loop_
 _atom_site_type_symbol
 _atom_site_label
 _atom_site_symmetry_multiplicity
 _atom_site_fract_x
 _atom_site_fract_y
 _atom_site_fract_z
 _atom_site_occupancy
  Na  Na0  1  0.74899531  0.58276799  0.12860022  1
  Na  Na1  1  0.24899786  -0.08277745  0.12862182  1
  Na  Na2  1  0.25100260  0.41722168  0.62863184  1
  Na  Na3  1  0.75100376  0.08276912  0.62861096  1
  I  I4  1  0.25073154  0.08567914  0.62776276  1
  I  I5  1  0.75072940  0.41432985  0.62784474  1
  I  I6  1  0.74927048  0.91432952  0.12782293  1
  I  I7  1  0.24926905  0.58568015  0.12774001  1
