# generated using pymatgen
data_KI
_symmetry_space_group_name_H-M   'P 1'
_cell_length_a   4.98215139
_cell_length_b   8.61236260
_cell_length_c   8.66731970
_cell_angle_alpha   89.99999994
_cell_angle_beta   90.03613833
_cell_angle_gamma   89.99999987
_symmetry_Int_Tables_number   1
_chemical_formula_structural   KI
_chemical_formula_sum   'K4 I4'
_cell_volume   371.89809670
_cell_formula_units_Z   4
loop_
 _symmetry_equiv_pos_site_id
 _symmetry_equiv_pos_as_xyz
  1  'x, y, z'
loop_
 _atom_site_type_symbol
 _atom_site_label
 _atom_site_symmetry_multiplicity
 _atom_site_fract_x
 _atom_site_fract_y
 _atom_site_fract_z
 _atom_site_occupancy
  K  K0  1  0.38200316  -0.00025285  0.56500422  1
  K  K1  1  0.88200310  0.49974713  0.56500424  1
  K  K2  1  0.38200317  0.00025285  0.06500424  1
  K  K3  1  0.88200309  0.50025286  0.06500423  1
  I  I4  1  0.88202252  0.16601556  0.81535028  1
  I  I5  1  0.38202247  0.66601557  0.81535027  1
  I  I6  1  0.88202254  0.83398443  0.31535028  1
  I  I7  1  0.38202247  0.33398444  0.31535027  1
