# generated using pymatgen
data_LiBr
_symmetry_space_group_name_H-M   'P 1'
_cell_length_a   7.79885374
_cell_length_b   7.79885241
_cell_length_c   10.99600221
_cell_angle_alpha   90.00000027
_cell_angle_beta   89.99999892
_cell_angle_gamma   90.00000908
_symmetry_Int_Tables_number   1
_chemical_formula_structural   LiBr
_chemical_formula_sum   'Li16 Br16'
_cell_volume   668.80004820
_cell_formula_units_Z   16
loop_
 _symmetry_equiv_pos_site_id
 _symmetry_equiv_pos_as_xyz
  1  'x, y, z'
loop_
 _atom_site_type_symbol
 _atom_site_label
 _atom_site_symmetry_multiplicity
 _atom_site_fract_x
 _atom_site_fract_y
 _atom_site_fract_z
 _atom_site_occupancy
  Li  Li0  1  0.25219259  0.50059267  0.44161717  1
  Li  Li1  1  0.00059336  0.25219198  0.69161673  1
  Li  Li2  1  0.74780720  0.50059295  0.94161725  1
  Li  Li3  1  0.74780785  0.49940733  0.44161610  1
  Li  Li4  1  -0.00059319  0.74780722  0.69161860  1
  Li  Li5  1  0.49940638  0.75219173  0.69161583  1
  Li  Li6  1  0.50059342  0.24780848  0.69161664  1
  Li  Li7  1  -0.00059264  0.25219262  0.19161723  1
  Li  Li8  1  0.00059313  0.74780819  0.19161662  1
  Li  Li9  1  0.24780721  -0.00059371  0.94161796  1
  Li  Li10  1  0.49940667  0.24780781  0.19161782  1
  Li  Li11  1  0.75219226  0.00059298  0.94161751  1
  Li  Li12  1  0.50059360  0.75219348  0.19161939  1
  Li  Li13  1  0.24780765  0.00059359  0.44161667  1
  Li  Li14  1  0.75219329  -0.00059351  0.44161842  1
  Li  Li15  1  0.25219308  0.49940656  0.94161769  1
  Br  Br16  1  0.25000929  0.49989190  0.69194127  1
  Br  Br17  1  -0.00010784  0.25000947  0.94194129  1
  Br  Br18  1  0.74999062  0.49989188  0.19194122  1
  Br  Br19  1  0.74999059  0.50010778  0.69194114  1
  Br  Br20  1  0.00010762  0.74999061  0.94194145  1
  Br  Br21  1  0.50010752  0.75000928  0.94194136  1
  Br  Br22  1  0.49989205  0.24999081  0.94194152  1
  Br  Br23  1  0.00010747  0.25000954  0.44194121  1
  Br  Br24  1  -0.00010784  0.74999075  0.44194139  1
  Br  Br25  1  0.24999070  0.00010781  0.19194136  1
  Br  Br26  1  0.50010744  0.24999085  0.44194138  1
  Br  Br27  1  0.75000931  -0.00010817  0.19194147  1
  Br  Br28  1  0.49989225  0.75000973  0.44194114  1
  Br  Br29  1  0.24999046  -0.00010825  0.69194143  1
  Br  Br30  1  0.75000914  0.00010788  0.69194152  1
  Br  Br31  1  0.25000935  0.50010778  0.19194142  1
