# generated using pymatgen
data_KI
_symmetry_space_group_name_H-M   'P 1'
_cell_length_a   9.26503501
_cell_length_b   13.94655965
_cell_length_c   5.49241559
_cell_angle_alpha   89.99993633
_cell_angle_beta   90.00000390
_cell_angle_gamma   90.00428106
_symmetry_Int_Tables_number   1
_chemical_formula_structural   KI
_chemical_formula_sum   'K8 I8'
_cell_volume   709.70447451
_cell_formula_units_Z   8
loop_
 _symmetry_equiv_pos_site_id
 _symmetry_equiv_pos_as_xyz
  1  'x, y, z'
loop_
 _atom_site_type_symbol
 _atom_site_label
 _atom_site_symmetry_multiplicity
 _atom_site_fract_x
 _atom_site_fract_y
 _atom_site_fract_z
 _atom_site_occupancy
  K  K0  1  0.62243572  0.62778305  0.24991968  1
  K  K1  1  0.62242846  0.87221696  0.74991711  1
  K  K2  1  0.12242842  0.87221695  0.75008031  1
  K  K3  1  0.87756412  0.37221696  0.74991710  1
  K  K4  1  0.37757169  0.12778305  0.25008288  1
  K  K5  1  0.87757173  0.12778304  0.24991968  1
  K  K6  1  0.12243574  0.62778303  0.25008291  1
  K  K7  1  0.37756412  0.37221696  0.75008034  1
  I  I8  1  0.87230518  0.87264775  0.25004711  1
  I  I9  1  0.87231483  0.62735218  0.75004883  1
  I  I10  1  0.37231473  0.62735221  0.74995284  1
  I  I11  1  0.62769491  0.12735224  0.75004885  1
  I  I12  1  0.12768500  0.37264781  0.24995116  1
  I  I13  1  0.62768512  0.37264780  0.25004714  1
  I  I14  1  0.37230524  0.87264777  0.24995116  1
  I  I15  1  0.12769499  0.12735223  0.74995290  1
