# generated using pymatgen
data_LiBr
_symmetry_space_group_name_H-M   'P 1'
_cell_length_a   11.52403683
_cell_length_b   11.52402569
_cell_length_c   7.92903906
_cell_angle_alpha   90.00120506
_cell_angle_beta   89.99881991
_cell_angle_gamma   120.00482103
_symmetry_Int_Tables_number   1
_chemical_formula_structural   LiBr
_chemical_formula_sum   'Li18 Br18'
_cell_volume   911.88263271
_cell_formula_units_Z   18
loop_
 _symmetry_equiv_pos_site_id
 _symmetry_equiv_pos_as_xyz
  1  'x, y, z'
loop_
 _atom_site_type_symbol
 _atom_site_label
 _atom_site_symmetry_multiplicity
 _atom_site_fract_x
 _atom_site_fract_y
 _atom_site_fract_z
 _atom_site_occupancy
  Li  Li0  1  0.79920622  0.20562242  0.25432857  1
  Li  Li1  1  0.79920077  0.59359010  0.75433396  1
  Li  Li2  1  0.12774861  0.86748761  0.42107197  1
  Li  Li3  1  0.73974408  0.87223941  0.42106788  1
  Li  Li4  1  0.46106996  0.92691222  0.58768563  1
  Li  Li5  1  0.79439537  0.59358010  0.25433340  1
  Li  Li6  1  0.73972548  0.86748573  0.92107518  1
  Li  Li7  1  0.12776086  0.26025448  0.92106698  1
  Li  Li8  1  0.40640994  0.20079722  0.25433419  1
  Li  Li9  1  0.40642098  0.20560539  0.75433281  1
  Li  Li10  1  0.13251196  0.87225169  0.92106991  1
  Li  Li11  1  0.13251559  0.26027293  0.42107395  1
  Li  Li12  1  0.07307519  0.53414397  0.58769188  1
  Li  Li13  1  0.07308738  0.53892933  0.08768499  1
  Li  Li14  1  0.79437560  0.20079436  0.75432991  1
  Li  Li15  1  0.46105851  0.53414064  0.08768558  1
  Li  Li16  1  0.46585940  0.53894023  0.58768520  1
  Li  Li17  1  0.46585622  0.92692618  0.08769198  1
  Br  Br18  1  0.54818950  0.45582329  0.82705357  1
  Br  Br19  1  0.54819920  0.09237105  0.32706593  1
  Br  Br20  1  0.87761297  0.11853427  -0.00631041  1
  Br  Br21  1  0.24091358  0.12239263  -0.00628573  1
  Br  Br22  1  0.21091626  0.42572019  0.16042115  1
  Br  Br23  1  0.54416863  0.09237969  0.82706831  1
  Br  Br24  1  0.24092109  0.11852986  0.49370953  1
  Br  Br25  1  0.87760690  0.75908607  0.49371474  1
  Br  Br26  1  0.90762919  0.45180222  0.82706617  1
  Br  Br27  1  0.90762039  0.45583139  0.32706635  1
  Br  Br28  1  0.88146588  0.12238672  0.49369031  1
  Br  Br29  1  0.88147141  0.75907926  -0.00628969  1
  Br  Br30  1  0.57429368  0.78520123  0.16041929  1
  Br  Br31  1  0.57428158  0.78908394  0.66042137  1
  Br  Br32  1  0.54417665  0.45181027  0.32705390  1
  Br  Br33  1  0.21091842  0.78520568  0.66039463  1
  Br  Br34  1  0.21479372  0.78908020  0.16039454  1
  Br  Br35  1  0.21479885  0.42570800  0.66042078  1
