# generated using pymatgen
data_LiBr
_symmetry_space_group_name_H-M   'P 1'
_cell_length_a   7.28791329
_cell_length_b   4.19170683
_cell_length_c   6.68195840
_cell_angle_alpha   90.00000158
_cell_angle_beta   89.99982323
_cell_angle_gamma   89.99991023
_symmetry_Int_Tables_number   1
_chemical_formula_structural   LiBr
_chemical_formula_sum   'Li4 Br4'
_cell_volume   204.12578342
_cell_formula_units_Z   4
loop_
 _symmetry_equiv_pos_site_id
 _symmetry_equiv_pos_as_xyz
  1  'x, y, z'
loop_
 _atom_site_type_symbol
 _atom_site_label
 _atom_site_symmetry_multiplicity
 _atom_site_fract_x
 _atom_site_fract_y
 _atom_site_fract_z
 _atom_site_occupancy
  Li  Li0  1  0.41774178  0.25060050  0.26407683  1
  Li  Li1  1  0.91774232  0.74939829  0.26407525  1
  Li  Li2  1  0.58225764  0.74939528  0.76407407  1
  Li  Li3  1  0.08225792  0.25060586  0.76407431  1
  Br  Br4  1  0.08495761  0.25011800  0.38247030  1
  Br  Br5  1  0.58495731  0.74988066  0.38247052  1
  Br  Br6  1  0.91504243  0.74988649  0.88247027  1
  Br  Br7  1  0.41504299  0.25011493  0.88247129  1
