# generated using pymatgen
data_LiI
_symmetry_space_group_name_H-M   'P 1'
_cell_length_a   11.84603766
_cell_length_b   11.86134581
_cell_length_c   4.37463105
_cell_angle_alpha   90.00117885
_cell_angle_beta   89.99969044
_cell_angle_gamma   120.09079599
_symmetry_Int_Tables_number   1
_chemical_formula_structural   LiI
_chemical_formula_sum   'Li6 I6'
_cell_volume   531.84008505
_cell_formula_units_Z   6
loop_
 _symmetry_equiv_pos_site_id
 _symmetry_equiv_pos_as_xyz
  1  'x, y, z'
loop_
 _atom_site_type_symbol
 _atom_site_label
 _atom_site_symmetry_multiplicity
 _atom_site_fract_x
 _atom_site_fract_y
 _atom_site_fract_z
 _atom_site_occupancy
  Li  Li0  1  0.33793062  0.04125486  0.56334307  1
  Li  Li1  1  0.29676838  0.33764220  0.89640417  1
  Li  Li2  1  0.70322703  0.66235323  0.89638649  1
  Li  Li3  1  0.04087043  0.70351785  0.22968813  1
  Li  Li4  1  0.95913108  0.29648602  0.22970026  1
  Li  Li5  1  0.66206735  0.95874803  0.56333932  1
  I  I6  1  0.11167243  0.39529400  0.73630306  1
  I  I7  1  0.71585663  0.11111152  0.06997700  1
  I  I8  1  0.28414451  0.88888913  0.06996529  1
  I  I9  1  0.39503394  0.28370704  0.40281648  1
  I  I10  1  0.60496676  0.71629076  0.40281988  1
  I  I11  1  0.88833085  0.60470536  0.73629537  1
