# generated using pymatgen
data_LiI
_symmetry_space_group_name_H-M   'P 1'
_cell_length_a   8.12057866
_cell_length_b   8.12213338
_cell_length_c   11.48771561
_cell_angle_alpha   89.99969023
_cell_angle_beta   90.00017675
_cell_angle_gamma   120.08178719
_symmetry_Int_Tables_number   1
_chemical_formula_structural   LiI
_chemical_formula_sum   'Li6 I6'
_cell_volume   655.63614974
_cell_formula_units_Z   6
loop_
 _symmetry_equiv_pos_site_id
 _symmetry_equiv_pos_as_xyz
  1  'x, y, z'
loop_
 _atom_site_type_symbol
 _atom_site_label
 _atom_site_symmetry_multiplicity
 _atom_site_fract_x
 _atom_site_fract_y
 _atom_site_fract_z
 _atom_site_occupancy
  Li  Li0  1  0.72713998  0.36748975  0.21489667  1
  Li  Li1  1  0.35964587  0.72723519  0.38164688  1
  Li  Li2  1  0.64035689  0.27276694  0.88164691  1
  Li  Li3  1  0.36785266  0.64014191  0.04830641  1
  Li  Li4  1  0.63214901  0.35986042  0.54830616  1
  Li  Li5  1  0.27286212  0.63251310  0.71489640  1
  I  I6  1  0.44560677  0.89220198  0.87988079  1
  I  I7  1  0.55249818  0.44465776  0.04650166  1
  I  I8  1  0.44749744  0.55533861  0.54650263  1
  I  I9  1  0.89225427  0.44812844  0.71309574  1
  I  I10  1  0.10774730  0.55186580  0.21309587  1
  I  I11  1  0.55438951  0.10780008  0.37988020  1
