# generated using pymatgen
data_LiI
_symmetry_space_group_name_H-M   'P 1'
_cell_length_a   8.89249199
_cell_length_b   9.25670698
_cell_length_c   7.20915599
_cell_angle_alpha   90.00000220
_cell_angle_beta   89.99999367
_cell_angle_gamma   90.00050673
_symmetry_Int_Tables_number   1
_chemical_formula_structural   LiI
_chemical_formula_sum   'Li8 I8'
_cell_volume   593.42306445
_cell_formula_units_Z   8
loop_
 _symmetry_equiv_pos_site_id
 _symmetry_equiv_pos_as_xyz
  1  'x, y, z'
loop_
 _atom_site_type_symbol
 _atom_site_label
 _atom_site_symmetry_multiplicity
 _atom_site_fract_x
 _atom_site_fract_y
 _atom_site_fract_z
 _atom_site_occupancy
  Li  Li0  1  0.86353234  0.36300616  0.46863652  1
  Li  Li1  1  0.36353222  0.13699351  0.46863395  1
  Li  Li2  1  0.13646499  0.36300363  0.96863547  1
  Li  Li3  1  0.13646721  0.63699363  0.46863636  1
  Li  Li4  1  0.86353539  0.63699660  0.96863556  1
  Li  Li5  1  0.63646724  0.86300649  0.46863471  1
  Li  Li6  1  0.63646705  0.13699343  0.96863427  1
  Li  Li7  1  0.36353368  0.86300661  0.96863398  1
  I  I8  1  0.16461356  0.65218404  0.85162551  1
  I  I9  1  0.66461192  0.84781464  0.85162502  1
  I  I10  1  0.83538913  0.65218608  0.35162599  1
  I  I11  1  0.83538685  0.34781630  0.85162604  1
  I  I12  1  0.16461021  0.34781358  0.35162577  1
  I  I13  1  0.33538860  0.15218556  0.85162454  1
  I  I14  1  0.33538869  0.84781386  0.35162479  1
  I  I15  1  0.66461091  0.15218588  0.35162481  1
