# generated using pymatgen
data_LiBr
_symmetry_space_group_name_H-M   'P 1'
_cell_length_a   7.09767500
_cell_length_b   3.76327394
_cell_length_c   6.52072117
_cell_angle_alpha   89.99984459
_cell_angle_beta   90.00009691
_cell_angle_gamma   89.99999697
_symmetry_Int_Tables_number   1
_chemical_formula_structural   LiBr
_chemical_formula_sum   'Li4 Br4'
_cell_volume   174.17169262
_cell_formula_units_Z   4
loop_
 _symmetry_equiv_pos_site_id
 _symmetry_equiv_pos_as_xyz
  1  'x, y, z'
loop_
 _atom_site_type_symbol
 _atom_site_label
 _atom_site_symmetry_multiplicity
 _atom_site_fract_x
 _atom_site_fract_y
 _atom_site_fract_z
 _atom_site_occupancy
  Li  Li0  1  0.19567026  0.75449305  0.31974898  1
  Li  Li1  1  0.69567100  0.24550739  0.31974777  1
  Li  Li2  1  0.80432954  0.24551303  0.81974713  1
  Li  Li3  1  0.30432997  0.75448663  0.81974829  1
  Br  Br4  1  0.88707796  0.74790237  0.10308262  1
  Br  Br5  1  0.38707812  0.25209735  0.10308448  1
  Br  Br6  1  0.11292142  0.25210036  0.60308388  1
  Br  Br7  1  0.61292173  0.74789982  0.60308205  1
