# generated using pymatgen
data_LiI
_symmetry_space_group_name_H-M   'P 1'
_cell_length_a   4.74927113
_cell_length_b   7.57071504
_cell_length_c   7.75595350
_cell_angle_alpha   89.99840494
_cell_angle_beta   90.00906602
_cell_angle_gamma   89.99646550
_symmetry_Int_Tables_number   1
_chemical_formula_structural   LiI
_chemical_formula_sum   'Li4 I4'
_cell_volume   278.86823861
_cell_formula_units_Z   4
loop_
 _symmetry_equiv_pos_site_id
 _symmetry_equiv_pos_as_xyz
  1  'x, y, z'
loop_
 _atom_site_type_symbol
 _atom_site_label
 _atom_site_symmetry_multiplicity
 _atom_site_fract_x
 _atom_site_fract_y
 _atom_site_fract_z
 _atom_site_occupancy
  Li  Li0  1  0.00066236  0.89365436  0.40440820  1
  Li  Li1  1  -0.00059878  0.39365035  0.09560320  1
  Li  Li2  1  0.49933819  0.10635197  -0.09557198  1
  Li  Li3  1  0.50060473  0.60635414  0.59556124  1
  I  I4  1  0.50081379  0.97740250  0.57202047  1
  I  I5  1  0.49915895  0.47739815  0.92797031  1
  I  I6  1  -0.00079988  0.02259350  0.07200091  1
  I  I7  1  0.00082064  0.52259502  0.42800765  1
