# generated using pymatgen
data_NaBr
_symmetry_space_group_name_H-M   'P 1'
_cell_length_a   7.19589665
_cell_length_b   4.15328599
_cell_length_c   7.54881880
_cell_angle_alpha   89.99999060
_cell_angle_beta   89.99997453
_cell_angle_gamma   89.99999805
_symmetry_Int_Tables_number   1
_chemical_formula_structural   NaBr
_chemical_formula_sum   'Na4 Br4'
_cell_volume   225.60865415
_cell_formula_units_Z   4
loop_
 _symmetry_equiv_pos_site_id
 _symmetry_equiv_pos_as_xyz
  1  'x, y, z'
loop_
 _atom_site_type_symbol
 _atom_site_label
 _atom_site_symmetry_multiplicity
 _atom_site_fract_x
 _atom_site_fract_y
 _atom_site_fract_z
 _atom_site_occupancy
  Na  Na0  1  0.41761869  0.24919624  0.65158936  1
  Na  Na1  1  0.91761841  0.75080354  0.65159038  1
  Na  Na2  1  0.58238164  0.75080376  0.15159673  1
  Na  Na3  1  0.08238180  0.24919667  0.15159606  1
  Br  Br4  1  0.25410754  0.74980313  0.90131976  1
  Br  Br5  1  0.75410814  0.25019672  0.90131918  1
  Br  Br6  1  0.74589164  0.25019662  0.40131982  1
  Br  Br7  1  0.24589215  0.74980330  0.40132057  1
