# generated using pymatgen
data_LiBr
_symmetry_space_group_name_H-M   'P 1'
_cell_length_a   7.91695574
_cell_length_b   7.91695499
_cell_length_c   12.30118267
_cell_angle_alpha   89.99993841
_cell_angle_beta   89.99995029
_cell_angle_gamma   89.99998161
_symmetry_Int_Tables_number   1
_chemical_formula_structural   LiBr
_chemical_formula_sum   'Li16 Br16'
_cell_volume   771.01576920
_cell_formula_units_Z   16
loop_
 _symmetry_equiv_pos_site_id
 _symmetry_equiv_pos_as_xyz
  1  'x, y, z'
loop_
 _atom_site_type_symbol
 _atom_site_label
 _atom_site_symmetry_multiplicity
 _atom_site_fract_x
 _atom_site_fract_y
 _atom_site_fract_z
 _atom_site_occupancy
  Li  Li0  1  0.31560984  0.81394629  -0.00009479  1
  Li  Li1  1  0.68605176  0.81560833  0.50009473  1
  Li  Li2  1  0.31560972  0.31394375  0.25009323  1
  Li  Li3  1  0.68438700  0.18605276  -0.00009263  1
  Li  Li4  1  0.31394603  0.18438530  0.50009265  1
  Li  Li5  1  0.18605103  0.81561401  0.24990617  1
  Li  Li6  1  0.81394400  0.18439119  0.24990629  1
  Li  Li7  1  0.68605416  0.31560776  0.74990618  1
  Li  Li8  1  0.31394994  0.68438424  0.74990646  1
  Li  Li9  1  0.18439073  0.68605562  0.49990555  1
  Li  Li10  1  0.81394660  0.68439350  0.00009458  1
  Li  Li11  1  0.81561398  0.31394942  0.49990702  1
  Li  Li12  1  0.18605128  0.31561516  0.00009311  1
  Li  Li13  1  0.81561373  0.81394997  0.75009381  1
  Li  Li14  1  0.18439150  0.18605621  0.75009347  1
  Li  Li15  1  0.68438713  0.68604887  0.25009447  1
  Br  Br16  1  0.43950655  0.75082332  0.37566455  1
  Br  Br17  1  0.74918007  0.93950720  0.12433821  1
  Br  Br18  1  0.43950725  0.25082520  0.87433552  1
  Br  Br19  1  0.56049293  0.24918922  0.37566535  1
  Br  Br20  1  0.25081668  0.06049345  0.12433265  1
  Br  Br21  1  0.24918092  0.93950636  0.62566659  1
  Br  Br22  1  0.75081588  0.06049281  0.62566302  1
  Br  Br23  1  0.74918810  0.43950755  0.12566347  1
  Br  Br24  1  0.25082196  0.56049368  0.12566622  1
  Br  Br25  1  0.06049376  0.74917587  0.87566440  1
  Br  Br26  1  0.75081662  0.56049279  0.62433786  1
  Br  Br27  1  0.93950690  0.25081086  0.87566461  1
  Br  Br28  1  0.24918186  0.43950609  0.62433189  1
  Br  Br29  1  0.93950577  0.75080993  0.37433583  1
  Br  Br30  1  0.06049217  0.24917392  0.37433446  1
  Br  Br31  1  0.56049413  0.74918934  0.87433507  1
