# generated using pymatgen
data_LiBr
_symmetry_space_group_name_H-M   'P 1'
_cell_length_a   7.11215546
_cell_length_b   7.15716951
_cell_length_c   3.75672953
_cell_angle_alpha   90.00028309
_cell_angle_beta   89.99899808
_cell_angle_gamma   90.00001119
_symmetry_Int_Tables_number   1
_chemical_formula_structural   LiBr
_chemical_formula_sum   'Li4 Br4'
_cell_volume   191.22843573
_cell_formula_units_Z   4
loop_
 _symmetry_equiv_pos_site_id
 _symmetry_equiv_pos_as_xyz
  1  'x, y, z'
loop_
 _atom_site_type_symbol
 _atom_site_label
 _atom_site_symmetry_multiplicity
 _atom_site_fract_x
 _atom_site_fract_y
 _atom_site_fract_z
 _atom_site_occupancy
  Li  Li0  1  0.60360645  0.31140269  0.11823663  1
  Li  Li1  1  0.10360645  0.18859749  0.11823594  1
  Li  Li2  1  0.39639573  0.68859576  0.61822889  1
  Li  Li3  1  0.89639574  0.81140451  0.61822937  1
  Br  Br4  1  0.67224795  0.66733688  0.11772275  1
  Br  Br5  1  0.17224809  0.83266284  0.11772439  1
  Br  Br6  1  0.32774969  0.33266555  0.61771626  1
  Br  Br7  1  0.82774990  0.16733428  0.61771432  1
