# generated using pymatgen
data_LiI
_symmetry_space_group_name_H-M   'P 1'
_cell_length_a   9.17105106
_cell_length_b   9.17093136
_cell_length_c   15.62805670
_cell_angle_alpha   90.00013294
_cell_angle_beta   90.00019168
_cell_angle_gamma   90.00240854
_symmetry_Int_Tables_number   1
_chemical_formula_structural   LiI
_chemical_formula_sum   'Li16 I16'
_cell_volume   1314.43021055
_cell_formula_units_Z   16
loop_
 _symmetry_equiv_pos_site_id
 _symmetry_equiv_pos_as_xyz
  1  'x, y, z'
loop_
 _atom_site_type_symbol
 _atom_site_label
 _atom_site_symmetry_multiplicity
 _atom_site_fract_x
 _atom_site_fract_y
 _atom_site_fract_z
 _atom_site_occupancy
  Li  Li0  1  0.83970036  0.87971269  0.06858707  1
  Li  Li1  1  0.87972372  0.16028743  0.93141344  1
  Li  Li2  1  0.83969292  0.12027676  0.56858903  1
  Li  Li3  1  0.37973662  0.66029674  0.43141510  1
  Li  Li4  1  0.33969670  0.62029064  0.06858636  1
  Li  Li5  1  0.62027225  0.33970950  0.43141110  1
  Li  Li6  1  0.33970492  0.37973409  0.56858602  1
  Li  Li7  1  0.66031243  0.62028225  0.56857981  1
  Li  Li8  1  0.62028784  0.66030234  0.93141117  1
  Li  Li9  1  0.66029639  0.37970775  0.06859223  1
  Li  Li10  1  0.37970629  0.33970567  0.93141194  1
  Li  Li11  1  0.16029349  0.12028566  0.06858405  1
  Li  Li12  1  0.12029179  0.83970771  0.93140997  1
  Li  Li13  1  0.12027739  0.16030866  0.43141088  1
  Li  Li14  1  0.16031075  0.87971325  0.56859347  1
  Li  Li15  1  0.87970697  0.83968749  0.43141164  1
  I  I16  1  0.63217110  0.32366383  0.61063155  1
  I  I17  1  0.32366384  0.36782041  0.38937956  1
  I  I18  1  0.63220323  0.67634100  0.11063018  1
  I  I19  1  0.82366507  0.86781257  0.88937340  1
  I  I20  1  0.13219412  0.17634007  0.61063247  1
  I  I21  1  0.17632375  0.13218857  0.88937418  1
  I  I22  1  0.13219216  0.82366749  0.11063265  1
  I  I23  1  0.86781036  0.17632299  0.11063120  1
  I  I24  1  0.17633967  0.86781635  0.38936357  1
  I  I25  1  0.86780909  0.82364918  0.61063076  1
  I  I26  1  0.82366902  0.13219011  0.38936284  1
  I  I27  1  0.36780906  0.67633154  0.61062380  1
  I  I28  1  0.67632670  0.63218089  0.38937962  1
  I  I29  1  0.67632577  0.36780859  0.88936151  1
  I  I30  1  0.36780965  0.32366269  0.11063270  1
  I  I31  1  0.32367657  0.63219508  0.88936673  1
