# generated using pymatgen
data_LiBr
_symmetry_space_group_name_H-M   'P 1'
_cell_length_a   3.90036171
_cell_length_b   3.90036136
_cell_length_c   10.99643277
_cell_angle_alpha   89.99999864
_cell_angle_beta   90.00002926
_cell_angle_gamma   89.99978363
_symmetry_Int_Tables_number   1
_chemical_formula_structural   LiBr
_chemical_formula_sum   'Li4 Br4'
_cell_volume   167.28675318
_cell_formula_units_Z   4
loop_
 _symmetry_equiv_pos_site_id
 _symmetry_equiv_pos_as_xyz
  1  'x, y, z'
loop_
 _atom_site_type_symbol
 _atom_site_label
 _atom_site_symmetry_multiplicity
 _atom_site_fract_x
 _atom_site_fract_y
 _atom_site_fract_z
 _atom_site_occupancy
  Li  Li0  1  0.49667462  -0.00056323  0.57365930  1
  Li  Li1  1  -0.00056219  0.50331826  0.82365940  1
  Li  Li2  1  0.50332325  0.00056283  0.07365825  1
  Li  Li3  1  0.00056311  0.49668104  0.32366046  1
  Br  Br4  1  0.50053258  -0.00030166  0.32321339  1
  Br  Br5  1  -0.00030306  0.49946837  0.57321348  1
  Br  Br6  1  0.49946805  0.00030215  0.82321416  1
  Br  Br7  1  0.00030364  0.50053224  0.07321344  1
