# generated using pymatgen
data_KBr
_symmetry_space_group_name_H-M   'P 1'
_cell_length_a   9.50570128
_cell_length_b   9.48079967
_cell_length_c   13.41496825
_cell_angle_alpha   89.99999979
_cell_angle_beta   90.00000031
_cell_angle_gamma   89.99572559
_symmetry_Int_Tables_number   1
_chemical_formula_structural   KBr
_chemical_formula_sum   'K16 Br16'
_cell_volume   1208.97906391
_cell_formula_units_Z   16
loop_
 _symmetry_equiv_pos_site_id
 _symmetry_equiv_pos_as_xyz
  1  'x, y, z'
loop_
 _atom_site_type_symbol
 _atom_site_label
 _atom_site_symmetry_multiplicity
 _atom_site_fract_x
 _atom_site_fract_y
 _atom_site_fract_z
 _atom_site_occupancy
  K  K0  1  0.74990926  -0.00022166  0.78755376  1
  K  K1  1  0.25009073  0.00022167  0.78755371  1
  K  K2  1  0.50008999  0.24977979  0.03755566  1
  K  K3  1  0.75009074  0.00022168  0.28755372  1
  K  K4  1  0.00008997  0.24977976  0.53755564  1
  K  K5  1  -0.00008995  0.25022024  0.03755571  1
  K  K6  1  0.24990925  -0.00022170  0.28755377  1
  K  K7  1  0.00008999  0.74977979  0.03755565  1
  K  K8  1  -0.00008999  0.75022022  0.53755571  1
  K  K9  1  0.24990927  0.49977831  0.78755375  1
  K  K10  1  0.75009074  0.50022166  0.78755372  1
  K  K11  1  0.50008998  0.74977977  0.53755565  1
  K  K12  1  0.49991001  0.25022023  0.53755569  1
  K  K13  1  0.49991006  0.75022024  0.03755568  1
  K  K14  1  0.74990926  0.49977832  0.28755376  1
  K  K15  1  0.25009073  0.50022170  0.28755371  1
  Br  Br16  1  -0.00076943  0.74990831  0.28747314  1
  Br  Br17  1  0.00076942  0.25009169  0.28747290  1
  Br  Br18  1  0.25074644  -0.00011645  0.53747430  1
  Br  Br19  1  0.50076941  0.25009168  0.78747289  1
  Br  Br20  1  0.75074647  -0.00011643  0.03747430  1
  Br  Br21  1  0.24925353  0.50011644  0.53747453  1
  Br  Br22  1  0.49923057  0.74990831  0.78747313  1
  Br  Br23  1  0.75074644  0.49988355  0.53747430  1
  Br  Br24  1  0.24925357  0.00011645  0.03747453  1
  Br  Br25  1  0.49923057  0.24990831  0.28747313  1
  Br  Br26  1  0.50076942  0.75009168  0.28747289  1
  Br  Br27  1  0.25074646  0.49988357  0.03747429  1
  Br  Br28  1  0.74925357  0.50011644  0.03747453  1
  Br  Br29  1  0.74925353  0.00011645  0.53747453  1
  Br  Br30  1  -0.00076943  0.24990830  0.78747313  1
  Br  Br31  1  0.00076941  0.75009168  0.78747290  1
