# generated using pymatgen
data_LiI
_symmetry_space_group_name_H-M   'P 1'
_cell_length_a   4.25764048
_cell_length_b   4.25927063
_cell_length_c   10.35874711
_cell_angle_alpha   90.01776525
_cell_angle_beta   89.98570645
_cell_angle_gamma   119.99566547
_symmetry_Int_Tables_number   1
_chemical_formula_structural   LiI
_chemical_formula_sum   'Li3 I3'
_cell_volume   162.69006364
_cell_formula_units_Z   3
loop_
 _symmetry_equiv_pos_site_id
 _symmetry_equiv_pos_as_xyz
  1  'x, y, z'
loop_
 _atom_site_type_symbol
 _atom_site_label
 _atom_site_symmetry_multiplicity
 _atom_site_fract_x
 _atom_site_fract_y
 _atom_site_fract_z
 _atom_site_occupancy
  Li  Li0  1  0.00099943  0.66567584  0.80346763  1
  Li  Li1  1  0.33386643  0.33498830  0.47047353  1
  Li  Li2  1  0.66509693  -0.00088727  0.13695370  1
  I  I3  1  0.33499462  0.33297727  -0.03063850  1
  I  I4  1  0.66723703  0.00237104  0.63613140  1
  I  I5  1  -0.00219442  0.66487481  0.30288808  1
