# generated using pymatgen
data_LiBr
_symmetry_space_group_name_H-M   'P 1'
_cell_length_a   10.95765912
_cell_length_b   3.90420039
_cell_length_c   3.90362608
_cell_angle_alpha   89.99996677
_cell_angle_beta   89.99999931
_cell_angle_gamma   89.99999641
_symmetry_Int_Tables_number   1
_chemical_formula_structural   LiBr
_chemical_formula_sum   'Li4 Br4'
_cell_volume   167.00062556
_cell_formula_units_Z   4
loop_
 _symmetry_equiv_pos_site_id
 _symmetry_equiv_pos_as_xyz
  1  'x, y, z'
loop_
 _atom_site_type_symbol
 _atom_site_label
 _atom_site_symmetry_multiplicity
 _atom_site_fract_x
 _atom_site_fract_y
 _atom_site_fract_z
 _atom_site_occupancy
  Li  Li0  1  0.62515132  0.75185232  -0.01215445  1
  Li  Li1  1  0.12515059  0.74815130  -0.01215445  1
  Li  Li2  1  0.37484904  0.24814538  0.48783944  1
  Li  Li3  1  0.87484903  0.25184610  0.48784029  1
  Br  Br4  1  0.37502233  0.74961888  -0.00719534  1
  Br  Br5  1  0.87502215  0.75038353  -0.00719600  1
  Br  Br6  1  0.62497789  0.25038409  0.49280459  1
  Br  Br7  1  0.12497765  0.24961839  0.49280578  1
