# generated using pymatgen
data_LiI
_symmetry_space_group_name_H-M   'P 1'
_cell_length_a   8.99198967
_cell_length_b   8.99210736
_cell_length_c   7.36858778
_cell_angle_alpha   89.99960766
_cell_angle_beta   90.00014513
_cell_angle_gamma   89.99960446
_symmetry_Int_Tables_number   1
_chemical_formula_structural   LiI
_chemical_formula_sum   'Li8 I8'
_cell_volume   595.80143407
_cell_formula_units_Z   8
loop_
 _symmetry_equiv_pos_site_id
 _symmetry_equiv_pos_as_xyz
  1  'x, y, z'
loop_
 _atom_site_type_symbol
 _atom_site_label
 _atom_site_symmetry_multiplicity
 _atom_site_fract_x
 _atom_site_fract_y
 _atom_site_fract_z
 _atom_site_occupancy
  Li  Li0  1  0.35923716  0.63207580  0.11359271  1
  Li  Li1  1  0.86791766  0.14075741  0.61360561  1
  Li  Li2  1  0.14075621  0.13207708  0.11360426  1
  Li  Li3  1  0.13208232  0.85924800  0.61359206  1
  Li  Li4  1  0.85924670  0.86792298  0.11358450  1
  Li  Li5  1  0.64076268  0.36792098  0.11360055  1
  Li  Li6  1  0.63208423  0.64075046  0.61358265  1
  Li  Li7  1  0.36791429  0.35924839  0.61360137  1
  I  I8  1  0.84664776  0.16447805  0.23801879  1
  I  I9  1  0.33551834  0.65335398  0.73800951  1
  I  I10  1  0.65334844  0.66448780  0.23800383  1
  I  I11  1  0.66448446  0.34664832  0.73801904  1
  I  I12  1  0.34664879  0.33551413  0.23801905  1
  I  I13  1  0.15335456  0.83551509  0.23801262  1
  I  I14  1  0.16448193  0.15335312  0.73802177  1
  I  I15  1  0.83551448  0.84664839  0.73800776  1
