# generated using pymatgen
data_LiBr
_symmetry_space_group_name_H-M   'P 1'
_cell_length_a   4.18590252
_cell_length_b   4.18590914
_cell_length_c   10.04960563
_cell_angle_alpha   90.00067136
_cell_angle_beta   89.99976179
_cell_angle_gamma   120.00070601
_symmetry_Int_Tables_number   1
_chemical_formula_structural   LiBr
_chemical_formula_sum   'Li3 Br3'
_cell_volume   152.49495250
_cell_formula_units_Z   3
loop_
 _symmetry_equiv_pos_site_id
 _symmetry_equiv_pos_as_xyz
  1  'x, y, z'
loop_
 _atom_site_type_symbol
 _atom_site_label
 _atom_site_symmetry_multiplicity
 _atom_site_fract_x
 _atom_site_fract_y
 _atom_site_fract_z
 _atom_site_occupancy
  Li  Li0  1  0.66264318  0.66567459  0.15514402  1
  Li  Li1  1  0.33431079  -0.00304216  0.48848506  1
  Li  Li2  1  0.00304545  0.33736651  0.82181720  1
  Br  Br3  1  -0.00365003  0.33259870  0.07428212  1
  Br  Br4  1  0.66739030  0.66374145  0.40761737  1
  Br  Br5  1  0.33626031  0.00366092  0.74094172  1
