# generated using pymatgen
data_LiI
_symmetry_space_group_name_H-M   'P 1'
_cell_length_a   4.93684945
_cell_length_b   4.93929539
_cell_length_c   18.16863940
_cell_angle_alpha   89.99915912
_cell_angle_beta   90.00012886
_cell_angle_gamma   120.03236954
_symmetry_Int_Tables_number   1
_chemical_formula_structural   LiI
_chemical_formula_sum   'Li6 I6'
_cell_volume   383.55369439
_cell_formula_units_Z   6
loop_
 _symmetry_equiv_pos_site_id
 _symmetry_equiv_pos_as_xyz
  1  'x, y, z'
loop_
 _atom_site_type_symbol
 _atom_site_label
 _atom_site_symmetry_multiplicity
 _atom_site_fract_x
 _atom_site_fract_y
 _atom_site_fract_z
 _atom_site_occupancy
  Li  Li0  1  0.66946822  0.33049091  0.96453390  1
  Li  Li1  1  0.33887733  0.67000853  0.79878051  1
  Li  Li2  1  0.66111959  0.32998909  0.29878472  1
  Li  Li3  1  0.33084751  0.66174958  0.13178597  1
  Li  Li4  1  0.66915625  0.33824918  0.63178517  1
  Li  Li5  1  0.33053151  0.66951252  0.46453103  1
  I  I6  1  0.67208891  0.33613113  0.79767984  1
  I  I7  1  0.33616994  0.67171295  0.63101885  1
  I  I8  1  0.66383251  0.32828600  0.13102131  1
  I  I9  1  0.33576418  0.66365691  0.96435662  1
  I  I10  1  0.66423578  0.33634597  0.46435681  1
  I  I11  1  0.32790828  0.66386724  0.29768133  1
