# generated using pymatgen
data_LiBr
_symmetry_space_group_name_H-M   'P 1'
_cell_length_a   3.89550379
_cell_length_b   5.50660481
_cell_length_c   5.50333010
_cell_angle_alpha   90.00001809
_cell_angle_beta   134.92011789
_cell_angle_gamma   89.99999498
_symmetry_Int_Tables_number   1
_chemical_formula_structural   LiBr
_chemical_formula_sum   'Li2 Br2'
_cell_volume   83.59162333
_cell_formula_units_Z   2
loop_
 _symmetry_equiv_pos_site_id
 _symmetry_equiv_pos_as_xyz
  1  'x, y, z'
loop_
 _atom_site_type_symbol
 _atom_site_label
 _atom_site_symmetry_multiplicity
 _atom_site_fract_x
 _atom_site_fract_y
 _atom_site_fract_z
 _atom_site_occupancy
  Li  Li0  1  -0.00704550  0.43248773  0.24635542  1
  Li  Li1  1  0.00704580  0.93248870  0.75364848  1
  Br  Br2  1  0.00142778  0.93288487  0.25050183  1
  Br  Br3  1  -0.00142808  0.43288508  0.74949427  1
