# generated using pymatgen
data_LiI
_symmetry_space_group_name_H-M   'P 1'
_cell_length_a   7.61693825
_cell_length_b   4.82447809
_cell_length_c   7.20670106
_cell_angle_alpha   90.00018449
_cell_angle_beta   78.44909532
_cell_angle_gamma   89.99930332
_symmetry_Int_Tables_number   1
_chemical_formula_structural   LiI
_chemical_formula_sum   'Li4 I4'
_cell_volume   259.46650768
_cell_formula_units_Z   4
loop_
 _symmetry_equiv_pos_site_id
 _symmetry_equiv_pos_as_xyz
  1  'x, y, z'
loop_
 _atom_site_type_symbol
 _atom_site_label
 _atom_site_symmetry_multiplicity
 _atom_site_fract_x
 _atom_site_fract_y
 _atom_site_fract_z
 _atom_site_occupancy
  Li  Li0  1  0.82415310  0.25256540  0.11380804  1
  Li  Li1  1  0.32415436  0.75256727  0.11380299  1
  Li  Li2  1  0.82415355  0.74743613  0.61380862  1
  Li  Li3  1  0.32415567  0.24743134  0.61380379  1
  I  I4  1  0.19620048  0.74852978  0.50063268  1
  I  I5  1  0.69619694  0.24853235  0.50063475  1
  I  I6  1  0.19619885  0.25146937  0.00063255  1
  I  I7  1  0.69619590  0.75146837  0.00063465  1
