# generated using pymatgen
data_LiI
_symmetry_space_group_name_H-M   'P 1'
_cell_length_a   8.93609468
_cell_length_b   8.93611950
_cell_length_c   8.24181852
_cell_angle_alpha   89.99954828
_cell_angle_beta   89.99918129
_cell_angle_gamma   90.00089532
_symmetry_Int_Tables_number   1
_chemical_formula_structural   LiI
_chemical_formula_sum   'Li8 I8'
_cell_volume   658.14225756
_cell_formula_units_Z   8
loop_
 _symmetry_equiv_pos_site_id
 _symmetry_equiv_pos_as_xyz
  1  'x, y, z'
loop_
 _atom_site_type_symbol
 _atom_site_label
 _atom_site_symmetry_multiplicity
 _atom_site_fract_x
 _atom_site_fract_y
 _atom_site_fract_z
 _atom_site_occupancy
  Li  Li0  1  0.13496726  0.84681121  0.15219301  1
  Li  Li1  1  0.65318070  0.36501934  0.65217753  1
  Li  Li2  1  0.63498135  0.65319397  0.34781959  1
  Li  Li3  1  0.34681048  0.63496398  0.65216941  1
  Li  Li4  1  0.36503143  0.34681623  0.34780765  1
  Li  Li5  1  0.86501800  0.15319282  0.15218514  1
  Li  Li6  1  0.15319464  0.13496709  0.84782909  1
  Li  Li7  1  0.84681875  0.86503057  0.84780350  1
  I  I8  1  0.17732787  0.15590009  0.18593884  1
  I  I9  1  0.34409005  0.32266685  0.68592211  1
  I  I10  1  0.67732844  0.34409724  0.31407166  1
  I  I11  1  0.65590489  0.67734063  0.68593491  1
  I  I12  1  0.32267406  0.65589813  0.31406931  1
  I  I13  1  0.82265559  0.84409063  0.18591797  1
  I  I14  1  0.84410643  0.17733773  0.81407232  1
  I  I15  1  0.15591005  0.82267349  0.81408796  1
