# generated using pymatgen
data_LiBr
_symmetry_space_group_name_H-M   'P 1'
_cell_length_a   11.39590633
_cell_length_b   11.39588725
_cell_length_c   7.98853045
_cell_angle_alpha   89.99915247
_cell_angle_beta   90.00087241
_cell_angle_gamma   120.01196105
_symmetry_Int_Tables_number   1
_chemical_formula_structural   LiBr
_chemical_formula_sum   'Li18 Br18'
_cell_volume   898.34299200
_cell_formula_units_Z   18
loop_
 _symmetry_equiv_pos_site_id
 _symmetry_equiv_pos_as_xyz
  1  'x, y, z'
loop_
 _atom_site_type_symbol
 _atom_site_label
 _atom_site_symmetry_multiplicity
 _atom_site_fract_x
 _atom_site_fract_y
 _atom_site_fract_z
 _atom_site_occupancy
  Li  Li0  1  0.46522231  0.53767832  0.73501316  1
  Li  Li1  1  0.46523168  0.92752855  0.23501903  1
  Li  Li2  1  0.79566636  0.20147748  0.90158403  1
  Li  Li3  1  0.40578972  0.20430958  0.90158061  1
  Li  Li4  1  0.12906279  0.26090595  0.06847852  1
  Li  Li5  1  0.46235088  0.92756065  0.73500153  1
  Li  Li6  1  0.40582257  0.20146038  0.40159982  1
  Li  Li7  1  0.79568565  0.59420661  0.40157394  1
  Li  Li8  1  0.07246958  0.53475859  0.73502235  1
  Li  Li9  1  0.07243253  0.53764634  0.23500229  1
  Li  Li10  1  0.79852252  0.20433865  0.40158300  1
  Li  Li11  1  0.79854304  0.59417850  0.90159718  1
  Li  Li12  1  0.73912896  0.86813469  0.06850659  1
  Li  Li13  1  0.73909885  0.87093519  0.56848901  1
  Li  Li14  1  0.46232486  0.53478085  0.23501495  1
  Li  Li15  1  0.12904609  0.86815627  0.56848063  1
  Li  Li16  1  0.13183876  0.87095392  0.06848509  1
  Li  Li17  1  0.13186979  0.26087591  0.56849281  1
  Br  Br18  1  0.88071719  0.12182514  0.64231334  1
  Br  Br19  1  0.88071590  0.75891405  0.14234544  1
  Br  Br20  1  0.21149179  0.78593724  0.80911517  1
  Br  Br21  1  0.57440175  0.78848273  0.80916925  1
  Br  Br22  1  0.54487656  0.09228610  -0.02427393  1
  Br  Br23  1  0.87820899  0.75894844  0.64236903  1
  Br  Br24  1  0.57442329  0.78592807  0.30914754  1
  Br  Br25  1  0.21151652  0.42560256  0.30915796  1
  Br  Br26  1  0.24108688  0.11928037  0.64234666  1
  Br  Br27  1  0.24105343  0.12179046  0.14236545  1
  Br  Br28  1  0.21406728  0.78851595  0.30910952  1
  Br  Br29  1  0.21407881  0.42557612  0.80914057  1
  Br  Br30  1  0.90774218  0.45260735  -0.02429445  1
  Br  Br31  1  0.90771185  0.45511993  0.47572727  1
  Br  Br32  1  0.87817283  0.11928203  0.14231256  1
  Br  Br33  1  0.54485032  0.45261224  0.47568514  1
  Br  Br34  1  0.54738840  0.45514838  -0.02431848  1
  Br  Br35  1  0.54738909  0.09225642  0.47570571  1
