# generated using pymatgen
data_LiBr
_symmetry_space_group_name_H-M   'P 1'
_cell_length_a   7.01692581
_cell_length_b   4.26934015
_cell_length_c   6.76555942
_cell_angle_alpha   89.99996895
_cell_angle_beta   90.00001533
_cell_angle_gamma   90.00001099
_symmetry_Int_Tables_number   1
_chemical_formula_structural   LiBr
_chemical_formula_sum   'Li4 Br4'
_cell_volume   202.68021417
_cell_formula_units_Z   4
loop_
 _symmetry_equiv_pos_site_id
 _symmetry_equiv_pos_as_xyz
  1  'x, y, z'
loop_
 _atom_site_type_symbol
 _atom_site_label
 _atom_site_symmetry_multiplicity
 _atom_site_fract_x
 _atom_site_fract_y
 _atom_site_fract_z
 _atom_site_occupancy
  Li  Li0  1  0.83135613  0.99732351  0.47145218  1
  Li  Li1  1  0.33135599  0.50267573  0.47145221  1
  Li  Li2  1  0.16864447  0.00266772  -0.02854387  1
  Li  Li3  1  0.66864434  0.49733167  -0.02854392  1
  Br  Br4  1  0.82760715  -0.00184044  0.84911941  1
  Br  Br5  1  0.32760689  0.50184130  0.84911931  1
  Br  Br6  1  0.17239262  0.00184449  0.34912000  1
  Br  Br7  1  0.67239240  0.49815601  0.34912007  1
