# generated using pymatgen
data_KI
_symmetry_space_group_name_H-M   'P 1'
_cell_length_a   10.55781304
_cell_length_b   10.55780906
_cell_length_c   7.12452198
_cell_angle_alpha   90.00004992
_cell_angle_beta   89.99994889
_cell_angle_gamma   120.00680817
_symmetry_Int_Tables_number   1
_chemical_formula_structural   KI
_chemical_formula_sum   'K6 I6'
_cell_volume   687.70840907
_cell_formula_units_Z   6
loop_
 _symmetry_equiv_pos_site_id
 _symmetry_equiv_pos_as_xyz
  1  'x, y, z'
loop_
 _atom_site_type_symbol
 _atom_site_label
 _atom_site_symmetry_multiplicity
 _atom_site_fract_x
 _atom_site_fract_y
 _atom_site_fract_z
 _atom_site_occupancy
  K  K0  1  0.33399757  -0.00001266  0.73430978  1
  K  K1  1  0.00003328  0.33402102  0.73430908  1
  K  K2  1  0.33397893  0.33400140  0.23431083  1
  K  K3  1  0.66597970  -0.00003312  0.23430883  1
  K  K4  1  0.00001252  0.66600283  0.23430950  1
  K  K5  1  0.66599808  0.66602069  0.73431111  1
  I  I6  1  0.33243455  0.33247133  0.73394077  1
  I  I7  1  0.66750138  -0.00005076  0.73394035  1
  I  I8  1  0.33246016  -0.00002505  0.23394106  1
  I  I9  1  0.00005084  0.33249913  0.23394024  1
  I  I10  1  0.66752811  0.66756497  0.23394098  1
  I  I11  1  0.00002489  0.66754022  0.73394118  1
