# generated using pymatgen
data_LiBr
_symmetry_space_group_name_H-M   'P 1'
_cell_length_a   14.39795712
_cell_length_b   14.39671897
_cell_length_c   14.39833176
_cell_angle_alpha   89.99892407
_cell_angle_beta   89.99916139
_cell_angle_gamma   89.99907314
_symmetry_Int_Tables_number   1
_chemical_formula_structural   LiBr
_chemical_formula_sum   'Li48 Br48'
_cell_volume   2984.53433226
_cell_formula_units_Z   48
loop_
 _symmetry_equiv_pos_site_id
 _symmetry_equiv_pos_as_xyz
  1  'x, y, z'
loop_
 _atom_site_type_symbol
 _atom_site_label
 _atom_site_symmetry_multiplicity
 _atom_site_fract_x
 _atom_site_fract_y
 _atom_site_fract_z
 _atom_site_occupancy
  Li  Li0  1  0.90923103  0.84149781  0.06429638  1
  Li  Li1  1  0.09150528  0.15922598  0.31430251  1
  Li  Li2  1  0.40921702  0.65852415  0.93571998  1
  Li  Li3  1  0.90849620  0.34077128  0.31429430  1
  Li  Li4  1  0.59078361  0.84146553  0.93571990  1
  Li  Li5  1  0.18569360  0.09150336  0.84079386  1
  Li  Li6  1  0.18569043  0.90849401  0.65920602  1
  Li  Li7  1  0.40848429  0.15922637  0.68570723  1
  Li  Li8  1  0.40922335  0.34149651  0.56430242  1
  Li  Li9  1  0.59148526  0.65921750  0.81429023  1
  Li  Li10  1  0.06427068  0.09077430  0.65852984  1
  Li  Li11  1  0.34079083  0.31429587  0.90852679  1
  Li  Li12  1  0.93572461  0.40923259  0.65851378  1
  Li  Li13  1  0.65921555  0.81429191  0.59148672  1
  Li  Li14  1  0.34078318  0.68570266  0.59149747  1
  Li  Li15  1  0.56426565  0.40922924  0.34146301  1
  Li  Li16  1  0.65922012  0.18568611  0.90848340  1
  Li  Li17  1  0.15921609  0.68569394  0.40849880  1
  Li  Li18  1  0.93571671  0.59077389  0.84148140  1
  Li  Li19  1  0.09152490  0.84077551  0.18568892  1
  Li  Li20  1  0.84148209  0.06428551  0.90922596  1
  Li  Li21  1  0.15852279  0.56428396  0.59078425  1
  Li  Li22  1  0.81430136  0.59150615  0.65921983  1
  Li  Li23  1  0.34145546  0.43572989  0.09078981  1
  Li  Li24  1  0.31431862  0.90848646  0.34078010  1
  Li  Li25  1  0.15854195  0.43573071  0.90920848  1
  Li  Li26  1  0.43571828  0.09076792  0.34149885  1
  Li  Li27  1  0.59151303  0.34077803  0.68569448  1
  Li  Li28  1  0.59077278  0.15851086  0.56428159  1
  Li  Li29  1  0.90922384  0.15850366  0.43571848  1
  Li  Li30  1  0.40851945  0.84077570  0.81427416  1
  Li  Li31  1  0.09077569  0.34149129  0.43570297  1
  Li  Li32  1  0.68570662  0.59148570  0.34079053  1
  Li  Li33  1  0.68568813  0.40850524  0.15920478  1
  Li  Li34  1  0.65852234  0.06429573  0.09077827  1
  Li  Li35  1  0.31432095  0.09152075  0.15922192  1
  Li  Li36  1  0.09076662  0.65850802  0.06428910  1
  Li  Li37  1  0.90846954  0.65922471  0.18569302  1
  Li  Li38  1  0.84146839  0.93571672  0.59078847  1
  Li  Li39  1  0.81431157  0.40849746  0.84078819  1
  Li  Li40  1  0.65852668  0.93570536  0.40921488  1
  Li  Li41  1  0.34148565  0.56428528  0.40922641  1
  Li  Li42  1  0.84078730  0.18569935  0.09150418  1
  Li  Li43  1  0.43572509  0.90923491  0.15849825  1
  Li  Li44  1  0.15920918  0.31429352  0.09146976  1
  Li  Li45  1  0.56425275  0.59077603  0.15854065  1
  Li  Li46  1  0.84079199  0.81429051  0.40851734  1
  Li  Li47  1  0.06428429  0.90922722  0.84146978  1
  Br  Br48  1  -0.01141832  0.42680621  0.84784826  1
  Br  Br49  1  0.67680249  0.23857841  0.09785627  1
  Br  Br50  1  0.48858014  0.07320410  0.15214501  1
  Br  Br51  1  0.32319610  0.26144117  0.09786493  1
  Br  Br52  1  0.51141258  0.42680187  0.15216114  1
  Br  Br53  1  0.40215685  0.67680311  0.76143395  1
  Br  Br54  1  0.40214958  0.32319140  0.73857893  1
  Br  Br55  1  0.82320306  0.23856692  0.90212831  1
  Br  Br56  1  0.48858388  0.92679929  0.34784778  1
  Br  Br57  1  0.17679768  0.73856956  0.59785772  1
  Br  Br58  1  0.84785712  0.01142234  0.07321191  1
  Br  Br59  1  0.26142932  0.09784940  0.32320331  1
  Br  Br60  1  0.15213281  0.48858096  0.07319825  1
  Br  Br61  1  0.73855503  0.59785599  0.17679909  1
  Br  Br62  1  0.26143590  0.90215275  0.17679509  1
  Br  Br63  1  0.34785759  0.48858432  0.92680261  1
  Br  Br64  1  0.73856781  0.40214374  0.32319000  1
  Br  Br65  1  0.23857913  0.90213101  0.82318510  1
  Br  Br66  1  0.15214976  0.51141256  0.42679518  1
  Br  Br67  1  0.67680907  0.76141857  0.40214865  1
  Br  Br68  1  0.42680320  0.84784965  -0.01143245  1
  Br  Br69  1  0.57319567  0.34785722  0.51141457  1
  Br  Br70  1  0.59785684  0.17680689  0.73855799  1
  Br  Br71  1  0.92679206  0.65216065  0.01141789  1
  Br  Br72  1  0.09784858  0.32319427  0.26142488  1
  Br  Br73  1  0.57318949  0.65214389  -0.01141718  1
  Br  Br74  1  0.65215198  0.01140832  0.92679585  1
  Br  Br75  1  0.17680345  0.26143620  0.90214357  1
  Br  Br76  1  0.51143002  0.57320261  0.34785461  1
  Br  Br77  1  -0.01142925  0.57320042  0.65214408  1
  Br  Br78  1  0.82319897  0.76143399  0.59787417  1
  Br  Br79  1  0.01142235  0.92680706  0.65215436  1
  Br  Br80  1  0.90215099  0.17680212  0.26144048  1
  Br  Br81  1  0.90214394  0.82318732  0.23857155  1
  Br  Br82  1  0.07320519  0.84784384  0.01141297  1
  Br  Br83  1  0.09785735  0.67680684  0.23856412  1
  Br  Br84  1  0.01143140  0.07319395  0.84785934  1
  Br  Br85  1  0.32319966  0.73856703  0.40214029  1
  Br  Br86  1  0.42679583  0.15215810  0.51142523  1
  Br  Br87  1  0.59785246  0.82318898  0.76143347  1
  Br  Br88  1  0.07320013  0.15215186  0.48858571  1
  Br  Br89  1  0.92679758  0.34785054  0.48857670  1
  Br  Br90  1  0.76143022  0.40215277  0.67680031  1
  Br  Br91  1  0.65213236  -0.01142462  0.57319852  1
  Br  Br92  1  0.23856552  0.09786195  0.67681067  1
  Br  Br93  1  0.34785597  0.51142160  0.57321293  1
  Br  Br94  1  0.76142169  0.59785285  0.82320458  1
  Br  Br95  1  0.84785793  -0.01142514  0.42680186  1
