# generated using pymatgen
data_NaI
_symmetry_space_group_name_H-M   'P 1'
_cell_length_a   13.36678741
_cell_length_b   13.36679256
_cell_length_c   8.61790023
_cell_angle_alpha   90.00188037
_cell_angle_beta   89.99809965
_cell_angle_gamma   120.07430466
_symmetry_Int_Tables_number   1
_chemical_formula_structural   NaI
_chemical_formula_sum   'Na18 I18'
_cell_volume   1332.47994167
_cell_formula_units_Z   18
loop_
 _symmetry_equiv_pos_site_id
 _symmetry_equiv_pos_as_xyz
  1  'x, y, z'
loop_
 _atom_site_type_symbol
 _atom_site_label
 _atom_site_symmetry_multiplicity
 _atom_site_fract_x
 _atom_site_fract_y
 _atom_site_fract_z
 _atom_site_occupancy
  Na  Na0  1  0.46798854  0.07720173  0.23152675  1
  Na  Na1  1  0.46795535  0.39067901  0.73170333  1
  Na  Na2  1  0.25613144  0.19867773  0.39819326  1
  Na  Na3  1  0.94261412  0.74397545  0.39818373  1
  Na  Na4  1  0.58935695  0.72405297  0.56485106  1
  Na  Na5  1  0.92269051  0.39071961  0.23151729  1
  Na  Na6  1  0.94265494  0.19871162  0.89837031  1
  Na  Na7  1  0.25602375  0.05738637  0.89818392  1
  Na  Na8  1  0.60932161  0.53204491  0.23170395  1
  Na  Na9  1  0.60928080  0.07730893  0.73151712  1
  Na  Na10  1  0.80132220  0.74386873  0.89819361  1
  Na  Na11  1  0.80128884  0.05734577  0.39836986  1
  Na  Na12  1  0.27598824  0.86537800  0.56503754  1
  Na  Na13  1  0.27594736  0.41064219  0.06485010  1
  Na  Na14  1  0.92279761  0.53201072  0.73152750  1
  Na  Na15  1  0.58946432  0.86534396  0.06486079  1
  Na  Na16  1  0.13465497  0.41053488  0.56485960  1
  Na  Na17  1  0.13462218  0.72401237  0.06503673  1
  I  I18  1  0.72038405  0.15902505  0.08767850  1
  I  I19  1  0.72034492  0.56128443  0.58787263  1
  I  I20  1  0.17430847  0.94628266  0.25434572  1
  I  I21  1  0.77189017  0.82567804  0.25442057  1
  I  I22  1  0.50765537  0.89477673  0.42108652  1
  I  I23  1  0.84098883  0.56144361  0.08775323  1
  I  I24  1  0.77204887  0.94632158  0.75453708  1
  I  I25  1  0.17432204  0.22811011  0.75441951  1
  I  I26  1  0.43871563  0.27965474  0.08787055  1
  I  I27  1  0.43855682  0.15901129  0.58775396  1
  I  I28  1  0.05371741  0.82569159  0.75434524  1
  I  I29  1  0.05367833  0.22795106  0.25453879  1
  I  I30  1  0.10538240  0.61298814  0.42120386  1
  I  I31  1  0.10522362  0.49234477  0.92108714  1
  I  I32  1  0.84097519  0.27961608  0.58767880  1
  I  I33  1  0.50764176  0.61294928  0.92101243  1
  I  I34  1  0.38705069  0.49235822  0.42101169  1
  I  I35  1  0.38701167  0.89461771  0.92120568  1
