# generated using pymatgen
data_LiI
_symmetry_space_group_name_H-M   'P 1'
_cell_length_a   12.04178423
_cell_length_b   12.04173870
_cell_length_c   7.89457694
_cell_angle_alpha   89.99987653
_cell_angle_beta   89.99998863
_cell_angle_gamma   89.99957184
_symmetry_Int_Tables_number   1
_chemical_formula_structural   LiI
_chemical_formula_sum   'Li16 I16'
_cell_volume   1144.74538619
_cell_formula_units_Z   16
loop_
 _symmetry_equiv_pos_site_id
 _symmetry_equiv_pos_as_xyz
  1  'x, y, z'
loop_
 _atom_site_type_symbol
 _atom_site_label
 _atom_site_symmetry_multiplicity
 _atom_site_fract_x
 _atom_site_fract_y
 _atom_site_fract_z
 _atom_site_occupancy
  Li  Li0  1  0.05562348  0.37827876  0.26086349  1
  Li  Li1  1  0.87827910  0.05562717  0.51086363  1
  Li  Li2  1  0.94438183  0.37828319  0.76086461  1
  Li  Li3  1  0.94437524  0.62172109  0.26086330  1
  Li  Li4  1  0.12172138  0.94437381  0.51086266  1
  Li  Li5  1  0.62171840  0.55562285  0.51086266  1
  Li  Li6  1  0.37828153  0.44437654  0.51086232  1
  Li  Li7  1  0.12172046  0.05562495  0.01086114  1
  Li  Li8  1  0.87827909  0.94437455  0.01086069  1
  Li  Li9  1  0.44438255  0.12172015  0.76086206  1
  Li  Li10  1  0.62172212  0.44437546  0.01086038  1
  Li  Li11  1  0.55561891  0.87827972  0.76086242  1
  Li  Li12  1  0.37827823  0.55562606  0.01086174  1
  Li  Li13  1  0.44438137  0.87828047  0.26086438  1
  Li  Li14  1  0.55561673  0.12171929  0.26086409  1
  Li  Li15  1  0.05561897  0.62171677  0.76086459  1
  I  I16  1  0.44506450  0.65119477  0.32112125  1
  I  I17  1  0.15119414  0.44506386  0.57112180  1
  I  I18  1  0.55493349  0.65119400  0.82112176  1
  I  I19  1  0.55493518  0.34880554  0.32111946  1
  I  I20  1  0.84880525  0.55493584  0.57112212  1
  I  I21  1  0.34880795  0.94506711  0.57112359  1
  I  I22  1  0.65119258  0.05493272  0.57112254  1
  I  I23  1  0.84880845  0.44506548  0.07112359  1
  I  I24  1  0.15119205  0.55493399  0.07112329  1
  I  I25  1  0.05493487  0.84880406  0.82112291  1
  I  I26  1  0.34880797  0.05493529  0.07112161  1
  I  I27  1  0.94506472  0.15119613  0.82112461  1
  I  I28  1  0.65119135  0.94506472  0.07112185  1
  I  I29  1  0.05493669  0.15119205  0.32112365  1
  I  I30  1  0.94506401  0.84880773  0.32112250  1
  I  I31  1  0.44506739  0.34880590  0.82112092  1
