# generated using pymatgen
data_LiBr
_symmetry_space_group_name_H-M   'P 1'
_cell_length_a   17.15342567
_cell_length_b   17.15350042
_cell_length_c   7.70407873
_cell_angle_alpha   90.00083087
_cell_angle_beta   90.00193745
_cell_angle_gamma   89.99988703
_symmetry_Int_Tables_number   1
_chemical_formula_structural   LiBr
_chemical_formula_sum   'Li32 Br32'
_cell_volume   2266.85809625
_cell_formula_units_Z   32
loop_
 _symmetry_equiv_pos_site_id
 _symmetry_equiv_pos_as_xyz
  1  'x, y, z'
loop_
 _atom_site_type_symbol
 _atom_site_label
 _atom_site_symmetry_multiplicity
 _atom_site_fract_x
 _atom_site_fract_y
 _atom_site_fract_z
 _atom_site_occupancy
  Li  Li0  1  0.54631655  0.64343970  -0.12293285  1
  Li  Li1  1  0.35656234  0.45367721  0.62294451  1
  Li  Li2  1  0.85656746  0.04632352  0.62293938  1
  Li  Li3  1  0.95368005  0.85655620  0.37703941  1
  Li  Li4  1  0.14343755  0.04632723  0.12296894  1
  Li  Li5  1  0.85655936  0.54632348  0.62704084  1
  Li  Li6  1  0.14343968  0.45367402  0.62705814  1
  Li  Li7  1  0.35656396  0.04632089  0.12702034  1
  Li  Li8  1  0.64343495  0.45367761  0.12297088  1
  Li  Li9  1  0.64344543  0.95367360  0.12707611  1
  Li  Li10  1  0.45367829  0.64343982  0.37705811  1
  Li  Li11  1  0.95366984  0.14344103  -0.12291936  1
  Li  Li12  1  0.45367186  0.35655654  -0.12293276  1
  Li  Li13  1  0.64343336  0.54632493  0.62296212  1
  Li  Li14  1  0.14343613  0.95367677  0.62295515  1
  Li  Li15  1  0.04632425  0.14344119  0.37707927  1
  Li  Li16  1  0.85655844  0.95368134  0.12293931  1
  Li  Li17  1  0.35655405  0.54632516  0.12292942  1
  Li  Li18  1  0.54632237  0.85656307  0.87294414  1
  Li  Li19  1  0.04632094  0.64344087  0.87295918  1
  Li  Li20  1  0.04632702  0.35655685  0.37292476  1
  Li  Li21  1  0.54633209  0.14343770  0.37293847  1
  Li  Li22  1  0.95368115  0.64343651  0.37294680  1
  Li  Li23  1  0.45368352  0.85656118  0.37292873  1
  Li  Li24  1  0.45367738  0.14344174  0.87293271  1
  Li  Li25  1  0.95367329  0.35656423  0.87293007  1
  Li  Li26  1  0.85655964  0.45367703  0.12703947  1
  Li  Li27  1  0.35656525  0.95367820  0.62703395  1
  Li  Li28  1  0.64343726  0.04632344  0.62706703  1
  Li  Li29  1  0.14343880  0.54631797  0.12706717  1
  Li  Li30  1  0.04631750  0.85656560  -0.12294365  1
  Li  Li31  1  0.54632850  0.35655710  0.37706403  1
  Br  Br32  1  0.93395238  0.16275217  0.56163146  1
  Br  Br33  1  0.83724426  0.06604793  0.93836067  1
  Br  Br34  1  0.33724436  0.43394901  0.93836937  1
  Br  Br35  1  0.56604996  0.33724794  0.06162889  1
  Br  Br36  1  0.66275317  0.43394984  0.43840705  1
  Br  Br37  1  0.33725657  0.93395149  0.31159388  1
  Br  Br38  1  0.66275641  0.06604542  0.31163991  1
  Br  Br39  1  0.83724619  0.43395158  0.81159760  1
  Br  Br40  1  0.16275347  0.06604938  0.43839691  1
  Br  Br41  1  0.16274908  0.56605092  0.81162077  1
  Br  Br42  1  0.06604717  0.16275429  0.06163478  1
  Br  Br43  1  0.56605000  0.66275563  0.56163557  1
  Br  Br44  1  0.06605195  0.83724936  0.56162150  1
  Br  Br45  1  0.16274879  0.93395341  0.93839424  1
  Br  Br46  1  0.66274650  0.56604750  0.93839841  1
  Br  Br47  1  0.43394535  0.66275234  0.06162661  1
  Br  Br48  1  0.33724718  0.56604999  0.43837546  1
  Br  Br49  1  0.83724687  0.93394747  0.43837554  1
  Br  Br50  1  0.93394946  0.33724630  0.18835878  1
  Br  Br51  1  0.43395461  0.16275152  0.18837410  1
  Br  Br52  1  0.43394981  0.83724629  0.68836067  1
  Br  Br53  1  0.93394643  0.66275598  0.68838142  1
  Br  Br54  1  0.56605021  0.16275242  0.68837854  1
  Br  Br55  1  0.06604854  0.33724573  0.68837434  1
  Br  Br56  1  0.06605261  0.66274884  0.18838543  1
  Br  Br57  1  0.56605392  0.83724435  0.18836752  1
  Br  Br58  1  0.33725178  0.06605106  0.81159399  1
  Br  Br59  1  0.83725056  0.56604879  0.31160804  1
  Br  Br60  1  0.16275150  0.43394903  0.31162829  1
  Br  Br61  1  0.66275457  0.93395162  0.81162697  1
  Br  Br62  1  0.43395231  0.33724924  0.56161625  1
  Br  Br63  1  0.93394575  0.83725143  0.06160724  1
