# generated using pymatgen
data_LiI
_symmetry_space_group_name_H-M   'P 1'
_cell_length_a   4.36393332
_cell_length_b   4.36377856
_cell_length_c   13.96541887
_cell_angle_alpha   89.99991749
_cell_angle_beta   89.99957990
_cell_angle_gamma   90.00004821
_symmetry_Int_Tables_number   1
_chemical_formula_structural   LiI
_chemical_formula_sum   'Li4 I4'
_cell_volume   265.94680501
_cell_formula_units_Z   4
loop_
 _symmetry_equiv_pos_site_id
 _symmetry_equiv_pos_as_xyz
  1  'x, y, z'
loop_
 _atom_site_type_symbol
 _atom_site_label
 _atom_site_symmetry_multiplicity
 _atom_site_fract_x
 _atom_site_fract_y
 _atom_site_fract_z
 _atom_site_occupancy
  Li  Li0  1  0.99147720  0.00992513  0.46218318  1
  Li  Li1  1  0.00992711  0.00852200  0.71218171  1
  Li  Li2  1  0.00851806  -0.00992005  0.96218326  1
  Li  Li3  1  -0.00991601  0.99147985  0.21218125  1
  I  I4  1  0.49164338  0.00268180  0.33735879  1
  I  I5  1  0.00268227  0.50835572  0.58735835  1
  I  I6  1  0.50835662  -0.00268991  0.83735752  1
  I  I7  1  -0.00268863  0.49164547  0.08735825  1
