# generated using pymatgen
data_LiBr
_symmetry_space_group_name_H-M   'P 1'
_cell_length_a   7.42673193
_cell_length_b   7.42673320
_cell_length_c   7.12318436
_cell_angle_alpha   90.00220055
_cell_angle_beta   90.00136255
_cell_angle_gamma   90.00009427
_symmetry_Int_Tables_number   1
_chemical_formula_structural   LiBr
_chemical_formula_sum   'Li8 Br8'
_cell_volume   392.88889609
_cell_formula_units_Z   8
loop_
 _symmetry_equiv_pos_site_id
 _symmetry_equiv_pos_as_xyz
  1  'x, y, z'
loop_
 _atom_site_type_symbol
 _atom_site_label
 _atom_site_symmetry_multiplicity
 _atom_site_fract_x
 _atom_site_fract_y
 _atom_site_fract_z
 _atom_site_occupancy
  Li  Li0  1  0.35134690  0.15119446  0.76363640  1
  Li  Li1  1  0.65119042  0.85133997  0.26363834  1
  Li  Li2  1  0.64865742  0.84881063  0.76364077  1
  Li  Li3  1  0.15118898  0.64866465  0.76363182  1
  Li  Li4  1  0.84881181  0.35134031  0.76364245  1
  Li  Li5  1  0.14866065  0.65118810  0.26363492  1
  Li  Li6  1  0.34880335  0.14865463  0.26363231  1
  Li  Li7  1  0.85134064  0.34881422  0.26364618  1
  Br  Br8  1  0.83275696  0.66672802  0.01354327  1
  Br  Br9  1  0.16672888  0.33275610  0.51354531  1
  Br  Br10  1  0.16724196  0.33327143  0.01354521  1
  Br  Br11  1  0.66672948  0.16724329  0.01353616  1
  Br  Br12  1  0.33326998  0.83275562  0.01354695  1
  Br  Br13  1  0.66724396  0.16672816  0.51353655  1
  Br  Br14  1  0.83327177  0.66724116  0.51354352  1
  Br  Br15  1  0.33275683  0.83326926  0.51354607  1
