# generated using pymatgen
data_NaI
_symmetry_space_group_name_H-M   'P 1'
_cell_length_a   4.61777163
_cell_length_b   4.61705888
_cell_length_c   13.03756693
_cell_angle_alpha   89.99994113
_cell_angle_beta   90.00176005
_cell_angle_gamma   89.99935775
_symmetry_Int_Tables_number   1
_chemical_formula_structural   NaI
_chemical_formula_sum   'Na4 I4'
_cell_volume   277.96775183
_cell_formula_units_Z   4
loop_
 _symmetry_equiv_pos_site_id
 _symmetry_equiv_pos_as_xyz
  1  'x, y, z'
loop_
 _atom_site_type_symbol
 _atom_site_label
 _atom_site_symmetry_multiplicity
 _atom_site_fract_x
 _atom_site_fract_y
 _atom_site_fract_z
 _atom_site_occupancy
  Na  Na0  1  0.00521976  0.49602519  0.65418430  1
  Na  Na1  1  0.49602858  -0.00523429  0.90420213  1
  Na  Na2  1  -0.00521678  0.50397390  0.15418445  1
  Na  Na3  1  0.50397387  0.00523384  0.40419185  1
  I  I4  1  -0.00401160  0.49732892  0.90411468  1
  I  I5  1  0.49733275  0.00400591  0.15411569  1
  I  I6  1  0.00400710  0.50267167  0.40410807  1
  I  I7  1  0.50266631  -0.00400515  0.65412228  1
