# generated using pymatgen
data_LiI
_symmetry_space_group_name_H-M   'P 1'
_cell_length_a   6.94632030
_cell_length_b   7.34259500
_cell_length_c   4.23253920
_cell_angle_alpha   90.00097038
_cell_angle_beta   89.99990584
_cell_angle_gamma   89.99962618
_symmetry_Int_Tables_number   1
_chemical_formula_structural   LiI
_chemical_formula_sum   'Li4 I4'
_cell_volume   215.87650016
_cell_formula_units_Z   4
loop_
 _symmetry_equiv_pos_site_id
 _symmetry_equiv_pos_as_xyz
  1  'x, y, z'
loop_
 _atom_site_type_symbol
 _atom_site_label
 _atom_site_symmetry_multiplicity
 _atom_site_fract_x
 _atom_site_fract_y
 _atom_site_fract_z
 _atom_site_occupancy
  Li  Li0  1  0.50056175  0.24853244  0.61828279  1
  Li  Li1  1  0.00056379  0.25146880  0.61828356  1
  Li  Li2  1  0.49944025  0.75146817  0.11829122  1
  Li  Li3  1  -0.00056240  0.74852993  0.11829219  1
  I  I4  1  0.24957024  0.58340597  0.61786822  1
  I  I5  1  0.74957441  0.91659669  0.61786433  1
  I  I6  1  0.75042592  0.41659354  0.11786578  1
  I  I7  1  0.25042605  0.08340447  0.11786955  1
