# generated using pymatgen
data_LiBr
_symmetry_space_group_name_H-M   'P 1'
_cell_length_a   7.18933273
_cell_length_b   4.17703662
_cell_length_c   7.20554105
_cell_angle_alpha   89.99986436
_cell_angle_beta   109.10689120
_cell_angle_gamma   90.00014218
_symmetry_Int_Tables_number   1
_chemical_formula_structural   LiBr
_chemical_formula_sum   'Li4 Br4'
_cell_volume   204.46251614
_cell_formula_units_Z   4
loop_
 _symmetry_equiv_pos_site_id
 _symmetry_equiv_pos_as_xyz
  1  'x, y, z'
loop_
 _atom_site_type_symbol
 _atom_site_label
 _atom_site_symmetry_multiplicity
 _atom_site_fract_x
 _atom_site_fract_y
 _atom_site_fract_z
 _atom_site_occupancy
  Li  Li0  1  0.45606550  0.74804050  0.24405615  1
  Li  Li1  1  0.95606502  0.24803993  0.24405621  1
  Li  Li2  1  0.45606569  0.25195727  0.74405266  1
  Li  Li3  1  0.95606217  0.75195934  0.74404993  1
  Br  Br4  1  0.58078340  0.75181481  0.61864118  1
  Br  Br5  1  0.08078407  0.25181817  0.61864122  1
  Br  Br6  1  0.58077974  0.24818518  0.11864080  1
  Br  Br7  1  0.08077934  0.74818481  0.11863978  1
