# generated using pymatgen
data_LiBr
_symmetry_space_group_name_H-M   'P 1'
_cell_length_a   7.78774913
_cell_length_b   7.78773822
_cell_length_c   11.01678471
_cell_angle_alpha   89.99995261
_cell_angle_beta   89.99993807
_cell_angle_gamma   89.99985912
_symmetry_Int_Tables_number   1
_chemical_formula_structural   LiBr
_chemical_formula_sum   'Li16 Br16'
_cell_volume   668.15644185
_cell_formula_units_Z   16
loop_
 _symmetry_equiv_pos_site_id
 _symmetry_equiv_pos_as_xyz
  1  'x, y, z'
loop_
 _atom_site_type_symbol
 _atom_site_label
 _atom_site_symmetry_multiplicity
 _atom_site_fract_x
 _atom_site_fract_y
 _atom_site_fract_z
 _atom_site_occupancy
  Li  Li0  1  0.25099646  0.49978434  0.52577889  1
  Li  Li1  1  -0.00021475  0.25099701  0.77577867  1
  Li  Li2  1  0.74899750  0.49978839  0.02577778  1
  Li  Li3  1  0.74900385  0.50021616  0.52577932  1
  Li  Li4  1  0.00021524  0.74900372  0.77577880  1
  Li  Li5  1  0.50021429  0.75099673  0.77577632  1
  Li  Li6  1  0.49978657  0.24900381  0.77577678  1
  Li  Li7  1  0.00021179  0.25099984  0.27577660  1
  Li  Li8  1  -0.00021161  0.74900100  0.27577697  1
  Li  Li9  1  0.24899808  0.00021431  0.02577873  1
  Li  Li10  1  0.50021539  0.24900329  0.27577921  1
  Li  Li11  1  0.75100202  -0.00021404  0.02577860  1
  Li  Li12  1  0.49978473  0.75099679  0.27577870  1
  Li  Li13  1  0.24900185  -0.00021228  0.52577791  1
  Li  Li14  1  0.75099919  0.00021309  0.52577781  1
  Li  Li15  1  0.25100321  0.50021215  0.02577736  1
  Br  Br16  1  0.24990332  0.00097062  0.27494487  1
  Br  Br17  1  0.50097074  0.24990313  0.52494491  1
  Br  Br18  1  0.75009690  0.00097113  0.77494231  1
  Br  Br19  1  0.75009640  -0.00097078  0.27494472  1
  Br  Br20  1  0.49902869  0.75009619  0.52494433  1
  Br  Br21  1  -0.00097107  0.74990126  0.52494280  1
  Br  Br22  1  0.00097060  0.25009787  0.52494285  1
  Br  Br23  1  0.49902927  0.24990086  0.02494259  1
  Br  Br24  1  0.50097028  0.75009887  0.02494295  1
  Br  Br25  1  0.25009645  0.49902862  0.77494469  1
  Br  Br26  1  -0.00096984  0.25009684  0.02494450  1
  Br  Br27  1  0.74990268  0.50097045  0.77494531  1
  Br  Br28  1  0.00096948  0.74990284  0.02494493  1
  Br  Br29  1  0.25009873  0.50097045  0.27494168  1
  Br  Br30  1  0.74990097  0.49902916  0.27494167  1
  Br  Br31  1  0.24990258  -0.00097185  0.77494220  1
