# generated using pymatgen
data_KI
_symmetry_space_group_name_H-M   'P 1'
_cell_length_a   4.50307582
_cell_length_b   4.92683806
_cell_length_c   8.44075335
_cell_angle_alpha   89.99999903
_cell_angle_beta   89.91331411
_cell_angle_gamma   90.00000475
_symmetry_Int_Tables_number   1
_chemical_formula_structural   KI
_chemical_formula_sum   'K2 I2'
_cell_volume   187.26570934
_cell_formula_units_Z   2
loop_
 _symmetry_equiv_pos_site_id
 _symmetry_equiv_pos_as_xyz
  1  'x, y, z'
loop_
 _atom_site_type_symbol
 _atom_site_label
 _atom_site_symmetry_multiplicity
 _atom_site_fract_x
 _atom_site_fract_y
 _atom_site_fract_z
 _atom_site_occupancy
  K  K0  1  0.15302497  0.75057559  0.65049650  1
  K  K1  1  0.15302384  0.24942442  0.15049624  1
  I  I2  1  0.65331326  0.74984760  0.31409202  1
  I  I3  1  0.65331396  0.25015239  0.81409187  1
