# generated using pymatgen
data_LiI
_symmetry_space_group_name_H-M   'P 1'
_cell_length_a   12.49525566
_cell_length_b   12.49471761
_cell_length_c   8.91835745
_cell_angle_alpha   90.04344159
_cell_angle_beta   89.95810702
_cell_angle_gamma   119.98065922
_symmetry_Int_Tables_number   1
_chemical_formula_structural   LiI
_chemical_formula_sum   'Li18 I18'
_cell_volume   1206.06730568
_cell_formula_units_Z   18
loop_
 _symmetry_equiv_pos_site_id
 _symmetry_equiv_pos_as_xyz
  1  'x, y, z'
loop_
 _atom_site_type_symbol
 _atom_site_label
 _atom_site_symmetry_multiplicity
 _atom_site_fract_x
 _atom_site_fract_y
 _atom_site_fract_z
 _atom_site_occupancy
  Li  Li0  1  0.07110624  0.34379789  0.68283004  1
  Li  Li1  1  0.07101978  0.72722059  0.18297606  1
  Li  Li2  1  -0.01049488  0.59553269  0.84949337  1
  Li  Li3  1  0.60606831  0.01051972  0.84967381  1
  Li  Li4  1  0.32283497  0.06060914  0.01634029  1
  Li  Li5  1  0.65614706  0.72725642  0.68299589  1
  Li  Li6  1  0.60612750  0.59563821  0.34965420  1
  Li  Li7  1  -0.01049523  0.39392108  0.34965943  1
  Li  Li8  1  0.27276851  -0.07100179  0.68299353  1
  Li  Li9  1  0.27275308  0.34385199  0.18301109  1
  Li  Li10  1  0.40443426  0.01046811  0.34950197  1
  Li  Li11  1  0.40433106  0.39390236  0.84964174  1
  Li  Li12  1  0.93943848  0.26231616  0.01631470  1
  Li  Li13  1  0.93942023  0.67717496  0.51632922  1
  Li  Li14  1  0.65616141  -0.07114533  0.18282426  1
  Li  Li15  1  0.32286057  0.26221122  0.51616439  1
  Li  Li16  1  0.73780853  0.67716668  0.01615313  1
  Li  Li17  1  0.73766539  0.06054837  0.51631108  1
  I  I18  1  0.43338969  0.91083902  0.08282884  1
  I  I19  1  0.43337890  0.52252017  0.58274071  1
  I  I20  1  0.42249751  0.23327410  0.24952054  1
  I  I21  1  0.81085135  0.57758250  0.24953212  1
  I  I22  1  0.75575069  0.85582560  0.41621977  1
  I  I23  1  0.08907992  0.52247798  0.08288609  1
  I  I24  1  0.81081553  0.23329586  0.74940911  1
  I  I25  1  0.42243032  0.18917513  0.74956586  1
  I  I26  1  0.47748973  0.56663183  0.08275574  1
  I  I27  1  0.47749425  0.91090422  0.58288572  1
  I  I28  1  0.76672811  0.57751566  0.74948606  1
  I  I29  1  0.76670897  0.18917647  0.24942237  1
  I  I30  1  0.14415578  0.89997068  0.41609187  1
  I  I31  1  0.14418031  0.24424138  0.91621406  1
  I  I32  1  0.08915193  0.56659833  0.58284328  1
  I  I33  1  0.75582347  0.89994837  0.91615521  1
  I  I34  1  0.10007164  0.24416734  0.41618002  1
  I  I35  1  0.10004660  0.85586691  0.91611166  1
