# generated using pymatgen
data_LiBr
_symmetry_space_group_name_H-M   'P 1'
_cell_length_a   3.87133037
_cell_length_b   3.91904283
_cell_length_c   6.60626172
_cell_angle_alpha   89.99999331
_cell_angle_beta   124.41846452
_cell_angle_gamma   89.99999927
_symmetry_Int_Tables_number   1
_chemical_formula_structural   LiBr
_chemical_formula_sum   'Li2 Br2'
_cell_volume   82.68254709
_cell_formula_units_Z   2
loop_
 _symmetry_equiv_pos_site_id
 _symmetry_equiv_pos_as_xyz
  1  'x, y, z'
loop_
 _atom_site_type_symbol
 _atom_site_label
 _atom_site_symmetry_multiplicity
 _atom_site_fract_x
 _atom_site_fract_y
 _atom_site_fract_z
 _atom_site_occupancy
  Li  Li0  1  0.51049918  0.74538874  0.99708955  1
  Li  Li1  1  0.51049918  0.25461123  0.49708874  1
  Br  Br2  1  0.00998569  0.75177981  0.49804578  1
  Br  Br3  1  0.00998541  0.24822021  -0.00195415  1
