# generated using pymatgen
data_NaI
_symmetry_space_group_name_H-M   'P 1'
_cell_length_a   12.12169998
_cell_length_b   12.12348980
_cell_length_c   11.75685093
_cell_angle_alpha   90.00788107
_cell_angle_beta   89.98017453
_cell_angle_gamma   120.01618785
_symmetry_Int_Tables_number   1
_chemical_formula_structural   NaI
_chemical_formula_sum   'Na18 I18'
_cell_volume   1496.03561956
_cell_formula_units_Z   18
loop_
 _symmetry_equiv_pos_site_id
 _symmetry_equiv_pos_as_xyz
  1  'x, y, z'
loop_
 _atom_site_type_symbol
 _atom_site_label
 _atom_site_symmetry_multiplicity
 _atom_site_fract_x
 _atom_site_fract_y
 _atom_site_fract_z
 _atom_site_occupancy
  Na  Na0  1  0.79269400  0.73004175  0.31544116  1
  Na  Na1  1  0.73001438  0.12649483  0.01418750  1
  Na  Na2  1  0.20730598  0.26995824  0.68455882  1
  Na  Na3  1  -0.06265374  0.20729898  0.31545445  1
  Na  Na4  1  0.39647441  0.26998032  0.01422771  1
  Na  Na5  1  0.73004946  -0.06264413  0.68458547  1
  Na  Na6  1  0.93671907  0.39639370  0.64757162  1
  Na  Na7  1  0.26995053  0.06264415  0.31541451  1
  Na  Na8  1  0.06265375  0.79270101  0.68454558  1
  Na  Na9  1  0.06328093  0.60360629  0.35242829  1
  Na  Na10  1  0.60352565  0.73001972  -0.01422773  1
  Na  Na11  1  0.60362898  0.54032444  0.64761241  1
  Na  Na12  1  0.39637099  0.45967564  0.35238765  1
  Na  Na13  1  0.26998564  0.87350516  -0.01418747  1
  Na  Na14  1  0.45970964  0.06331736  0.64752440  1
  Na  Na15  1  0.54029027  0.93668251  0.35247572  1
  Na  Na16  1  0.87348657  0.60350989  0.01422722  1
  Na  Na17  1  0.12651348  0.39649013  -0.01422724  1
  I  I18  1  0.24697672  0.05536190  0.81400929  1
  I  I19  1  0.85685981  0.58013009  0.51932957  1
  I  I20  1  0.75302330  0.94463810  0.18599072  1
  I  I21  1  0.80844403  0.75312240  0.81403436  1
  I  I22  1  0.72327243  0.14314252  0.51933465  1
  I  I23  1  0.05531669  0.80842972  0.18596613  1
  I  I24  1  0.61055919  0.52310628  0.14775569  1
  I  I25  1  0.94468330  0.19157029  0.81403386  1
  I  I26  1  0.19155597  0.24687759  0.18596561  1
  I  I27  1  0.38944081  0.47689371  0.85224429  1
  I  I28  1  0.27672756  0.85685748  0.48066536  1
  I  I29  1  0.47688197  0.08745666  0.14775405  1
  I  I30  1  0.52311804  0.91254335  0.85224596  1
  I  I31  1  0.14314021  0.41986991  0.48067040  1
  I  I32  1  0.91260602  0.38946337  0.14774623  1
  I  I33  1  0.08739399  0.61053666  0.85225376  1
  I  I34  1  0.41983054  0.27671464  0.51931568  1
  I  I35  1  0.58016944  0.72328534  0.48068431  1
