# generated using pymatgen
data_KBr
_symmetry_space_group_name_H-M   'P 1'
_cell_length_a   18.82580202
_cell_length_b   18.82581714
_cell_length_c   4.91703398
_cell_angle_alpha   90.00196421
_cell_angle_beta   89.99911592
_cell_angle_gamma   90.00116659
_symmetry_Int_Tables_number   1
_chemical_formula_structural   KBr
_chemical_formula_sum   'K16 Br16'
_cell_volume   1742.65145283
_cell_formula_units_Z   16
loop_
 _symmetry_equiv_pos_site_id
 _symmetry_equiv_pos_as_xyz
  1  'x, y, z'
loop_
 _atom_site_type_symbol
 _atom_site_label
 _atom_site_symmetry_multiplicity
 _atom_site_fract_x
 _atom_site_fract_y
 _atom_site_fract_z
 _atom_site_occupancy
  K  K0  1  0.69663752  0.58435606  0.62225845  1
  K  K1  1  0.91564479  0.19663801  0.87775033  1
  K  K2  1  0.69657208  0.08439864  0.62692539  1
  K  K3  1  0.30335840  0.41564654  0.62225652  1
  K  K4  1  0.08435614  0.80336125  0.87774015  1
  K  K5  1  0.41559837  0.19657021  -0.12692394  1
  K  K6  1  0.58440065  0.80343096  -0.12692953  1
  K  K7  1  0.91559862  0.69656940  0.37308014  1
  K  K8  1  0.08440052  0.30343057  0.37306765  1
  K  K9  1  0.80335832  0.91564656  0.12225523  1
  K  K10  1  0.58435606  0.30336148  0.37773751  1
  K  K11  1  0.19663719  0.08435621  0.12225975  1
  K  K12  1  0.41564496  0.69663840  0.37775119  1
  K  K13  1  0.19657253  0.58439886  0.12692629  1
  K  K14  1  0.80343196  0.41559834  0.12692228  1
  K  K15  1  0.30343204  0.91559858  0.62692273  1
  Br  Br16  1  0.08630213  0.69140588  0.38742624  1
  Br  Br17  1  0.80859560  0.58630408  0.11253284  1
  Br  Br18  1  0.08629333  0.19145035  -0.13670092  1
  Br  Br19  1  0.91369447  0.30859694  0.38748971  1
  Br  Br20  1  0.19140264  0.41369437  0.11255669  1
  Br  Br21  1  0.30854948  0.58629352  0.63665546  1
  Br  Br22  1  0.69145252  0.41370796  0.63667709  1
  Br  Br23  1  0.80854909  0.08629329  0.13665458  1
  Br  Br24  1  0.19145253  0.91370795  0.13667738  1
  Br  Br25  1  0.41369458  0.80859751  0.88749023  1
  Br  Br26  1  0.69140266  0.91369427  0.61255498  1
  Br  Br27  1  0.58630187  0.19140620  0.88742421  1
  Br  Br28  1  0.30859525  0.08630438  0.61253431  1
  Br  Br29  1  0.58629343  0.69145068  0.36330115  1
  Br  Br30  1  0.41371005  0.30854665  0.36336137  1
  Br  Br31  1  0.91371022  0.80854592  -0.13663545  1
