# generated using pymatgen
data_LiI
_symmetry_space_group_name_H-M   'P 1'
_cell_length_a   9.95308497
_cell_length_b   9.95443724
_cell_length_c   15.44628541
_cell_angle_alpha   90.00007260
_cell_angle_beta   90.00060357
_cell_angle_gamma   90.00331326
_symmetry_Int_Tables_number   1
_chemical_formula_structural   LiI
_chemical_formula_sum   'Li16 I16'
_cell_volume   1530.37717264
_cell_formula_units_Z   16
loop_
 _symmetry_equiv_pos_site_id
 _symmetry_equiv_pos_as_xyz
  1  'x, y, z'
loop_
 _atom_site_type_symbol
 _atom_site_label
 _atom_site_symmetry_multiplicity
 _atom_site_fract_x
 _atom_site_fract_y
 _atom_site_fract_z
 _atom_site_occupancy
  Li  Li0  1  0.59761683  0.14140366  0.67229483  1
  Li  Li1  1  0.35856051  0.09762716  0.82781176  1
  Li  Li2  1  0.59761753  0.64137842  0.57781042  1
  Li  Li3  1  0.40236927  0.85858534  0.67228505  1
  Li  Li4  1  0.64139404  0.90237239  0.82782363  1
  Li  Li5  1  0.85855352  0.09754372  0.92224570  1
  Li  Li6  1  0.14142158  0.90246766  0.92224452  1
  Li  Li7  1  0.35861321  0.59763025  0.42221639  1
  Li  Li8  1  0.64141754  0.40236597  0.42221957  1
  Li  Li9  1  0.90235080  0.35860992  0.17215442  1
  Li  Li10  1  0.14139119  0.40242336  0.32768194  1
  Li  Li11  1  0.09766813  0.64140404  0.17215526  1
  Li  Li12  1  0.85862684  0.59757523  0.32768096  1
  Li  Li13  1  0.09752855  0.14140660  0.07779221  1
  Li  Li14  1  0.90248149  0.85861076  0.07779752  1
  Li  Li15  1  0.40238893  0.35859990  0.57779963  1
  I  I16  1  0.68240943  0.87817707  0.65083296  1
  I  I17  1  0.62174595  0.18247089  0.84931562  1
  I  I18  1  0.68253149  0.37812065  0.59920693  1
  I  I19  1  0.31757944  0.12180931  0.65081350  1
  I  I20  1  0.37820318  0.81752746  0.84929776  1
  I  I21  1  0.12173201  0.18256732  0.90079250  1
  I  I22  1  0.87823752  0.81744273  0.90080205  1
  I  I23  1  0.62192068  0.68246697  0.40081661  1
  I  I24  1  0.37811201  0.31753024  0.40079988  1
  I  I25  1  0.81751193  0.62176945  0.15066833  1
  I  I26  1  0.87816060  0.31754564  0.34913782  1
  I  I27  1  0.18250451  0.37824228  0.15066875  1
  I  I28  1  0.12186367  0.68245765  0.34914031  1
  I  I29  1  0.18261910  0.87829339  0.09924481  1
  I  I30  1  0.81739316  0.12172212  0.09924679  1
  I  I31  1  0.31747537  0.62185245  0.59920155  1
