# generated using pymatgen
data_NaI
_symmetry_space_group_name_H-M   'P 1'
_cell_length_a   12.66444539
_cell_length_b   12.66460906
_cell_length_c   12.66456177
_cell_angle_alpha   89.99993507
_cell_angle_beta   90.00002401
_cell_angle_gamma   90.00000840
_symmetry_Int_Tables_number   1
_chemical_formula_structural   NaI
_chemical_formula_sum   'Na24 I24'
_cell_volume   2031.27222619
_cell_formula_units_Z   24
loop_
 _symmetry_equiv_pos_site_id
 _symmetry_equiv_pos_as_xyz
  1  'x, y, z'
loop_
 _atom_site_type_symbol
 _atom_site_label
 _atom_site_symmetry_multiplicity
 _atom_site_fract_x
 _atom_site_fract_y
 _atom_site_fract_z
 _atom_site_occupancy
  Na  Na0  1  0.49862116  0.49618501  0.25019987  1
  Na  Na1  1  -0.00137784  0.00381527  0.74980416  1
  Na  Na2  1  0.75019903  0.49862232  0.00381825  1
  Na  Na3  1  0.75019864  0.00137846  0.50381299  1
  Na  Na4  1  -0.00381571  0.24980213  0.50137913  1
  Na  Na5  1  0.25019847  0.49862167  0.49618690  1
  Na  Na6  1  0.74980131  -0.00137803  0.00381855  1
  Na  Na7  1  0.24980098  0.50137773  -0.00381828  1
  Na  Na8  1  0.50381566  0.75019940  0.00137855  1
  Na  Na9  1  0.49618422  0.25019944  0.49862190  1
  Na  Na10  1  0.00381562  0.74980182  -0.00137922  1
  Na  Na11  1  0.50137768  -0.00381431  0.24979896  1
  Na  Na12  1  0.00137613  0.50381432  0.75019711  1
  Na  Na13  1  0.74980150  0.50137827  0.50381294  1
  Na  Na14  1  0.25019876  0.00137801  -0.00381855  1
  Na  Na15  1  0.24980126  -0.00137842  0.49618694  1
  Na  Na16  1  0.00381571  0.75019797  0.49862102  1
  Na  Na17  1  0.49618438  0.24980059  -0.00137863  1
  Na  Na18  1  0.50381573  0.74980051  0.50137805  1
  Na  Na19  1  -0.00381550  0.25019819  0.00137930  1
  Na  Na20  1  0.49862232  0.00381426  0.75020100  1
  Na  Na21  1  -0.00137618  0.49618565  0.24980300  1
  Na  Na22  1  0.50137875  0.50381499  0.74980006  1
  Na  Na23  1  0.00137782  -0.00381533  0.25019592  1
  I  I24  1  0.25091875  0.50247711  0.74669996  1
  I  I25  1  0.75091899  -0.00247726  0.25330078  1
  I  I26  1  0.24669919  0.25091833  -0.00247568  1
  I  I27  1  0.24669974  0.24908181  0.49752490  1
  I  I28  1  0.00247627  0.75330029  0.74908089  1
  I  I29  1  0.74669965  0.25091915  0.50247759  1
  I  I30  1  0.25330095  0.75091926  -0.00247811  1
  I  I31  1  0.75330089  0.74908173  0.00247575  1
  I  I32  1  0.49752247  0.24669941  0.24908063  1
  I  I33  1  0.50247636  0.74669964  0.25091816  1
  I  I34  1  -0.00247751  0.25330062  0.75092039  1
  I  I35  1  0.74908126  0.00247726  0.75330039  1
  I  I36  1  0.24908138  0.49752265  0.24669890  1
  I  I37  1  0.25330039  0.74908086  0.49752248  1
  I  I38  1  0.74669914  0.24908082  0.00247813  1
  I  I39  1  0.75330031  0.75091818  0.50247514  1
  I  I40  1  -0.00247627  0.24669969  0.25091922  1
  I  I41  1  0.50247751  0.75330062  0.75091940  1
  I  I42  1  0.49752363  0.25330036  0.74908185  1
  I  I43  1  0.00247749  0.74669931  0.24907966  1
  I  I44  1  0.25091867  -0.00247725  0.24669952  1
  I  I45  1  0.75091861  0.50247736  0.75330104  1
  I  I46  1  0.74908126  0.49752290  0.25329996  1
  I  I47  1  0.24908099  0.00247723  0.74669915  1
