# generated using pymatgen
data_LiBr
_symmetry_space_group_name_H-M   'P 1'
_cell_length_a   14.43781065
_cell_length_b   14.43781213
_cell_length_c   14.43781236
_cell_angle_alpha   89.99996010
_cell_angle_beta   89.99994114
_cell_angle_gamma   90.00001586
_symmetry_Int_Tables_number   1
_chemical_formula_structural   LiBr
_chemical_formula_sum   'Li48 Br48'
_cell_volume   3009.56772815
_cell_formula_units_Z   48
loop_
 _symmetry_equiv_pos_site_id
 _symmetry_equiv_pos_as_xyz
  1  'x, y, z'
loop_
 _atom_site_type_symbol
 _atom_site_label
 _atom_site_symmetry_multiplicity
 _atom_site_fract_x
 _atom_site_fract_y
 _atom_site_fract_z
 _atom_site_occupancy
  Li  Li0  1  0.67914094  0.75174760  0.92265645  1
  Li  Li1  1  0.57734359  0.17914077  0.75174809  1
  Li  Li2  1  0.42265611  0.32085920  0.75174729  1
  Li  Li3  1  0.57734387  0.82085928  0.74825238  1
  Li  Li4  1  0.42265638  0.67914087  0.74825228  1
  Li  Li5  1  0.75174785  0.57734372  0.17914063  1
  Li  Li6  1  0.24825248  0.92265632  0.17914073  1
  Li  Li7  1  0.67914074  0.24825236  0.57734403  1
  Li  Li8  1  0.17914058  0.25174757  0.42265638  1
  Li  Li9  1  0.07734375  0.67914095  0.25174800  1
  Li  Li10  1  0.07734367  0.82085917  0.75174770  1
  Li  Li11  1  0.74825215  0.92265623  0.32085941  1
  Li  Li12  1  0.07734385  0.17914083  0.74825266  1
  Li  Li13  1  0.92265616  0.67914071  0.75174768  1
  Li  Li14  1  0.92265637  0.32085926  0.74825192  1
  Li  Li15  1  0.25174757  0.57734362  0.32085927  1
  Li  Li16  1  0.74825236  0.07734373  0.17914085  1
  Li  Li17  1  0.24825237  0.57734380  0.67914080  1
  Li  Li18  1  0.75174774  0.92265637  0.67914074  1
  Li  Li19  1  0.82085924  0.24825229  0.42265625  1
  Li  Li20  1  0.32085937  0.24825241  0.07734358  1
  Li  Li21  1  0.75174765  0.42265624  0.32085915  1
  Li  Li22  1  0.24825196  0.07734360  0.32085916  1
  Li  Li23  1  0.17914077  0.75174780  0.57734384  1
  Li  Li24  1  0.17914082  0.24825211  0.92265660  1
  Li  Li25  1  0.82085921  0.25174767  0.92265597  1
  Li  Li26  1  0.25174800  0.42265636  0.17914080  1
  Li  Li27  1  0.32085927  0.74825224  0.92265612  1
  Li  Li28  1  0.32085918  0.25174793  0.57734330  1
  Li  Li29  1  0.92265616  0.82085925  0.25174754  1
  Li  Li30  1  0.07734388  0.32085931  0.24825217  1
  Li  Li31  1  0.92265617  0.17914101  0.24825235  1
  Li  Li32  1  0.25174773  0.07734379  0.67914057  1
  Li  Li33  1  0.74825233  0.42265636  0.67914090  1
  Li  Li34  1  0.25174769  0.92265626  0.82085912  1
  Li  Li35  1  0.74825222  0.57734365  0.82085930  1
  Li  Li36  1  0.82085943  0.75174787  0.07734346  1
  Li  Li37  1  0.17914089  0.74825237  0.07734398  1
  Li  Li38  1  0.67914072  0.25174769  0.07734378  1
  Li  Li39  1  0.67914062  0.74825208  0.42265659  1
  Li  Li40  1  0.32085919  0.75174761  0.42265599  1
  Li  Li41  1  0.82085906  0.74825243  0.57734365  1
  Li  Li42  1  0.42265630  0.82085899  0.24825197  1
  Li  Li43  1  0.57734387  0.67914070  0.24825255  1
  Li  Li44  1  0.42265610  0.17914063  0.25174779  1
  Li  Li45  1  0.57734379  0.32085898  0.25174768  1
  Li  Li46  1  0.24825226  0.42265624  0.82085934  1
  Li  Li47  1  0.75174764  0.07734367  0.82085910  1
  Br  Br48  1  0.65326682  0.81110397  0.58834283  1
  Br  Br49  1  0.91165721  0.15326697  0.81110348  1
  Br  Br50  1  0.08834260  0.34673295  0.81110419  1
  Br  Br51  1  0.91165727  0.84673297  0.68889603  1
  Br  Br52  1  0.08834264  0.65326693  0.68889641  1
  Br  Br53  1  0.81110366  0.91165739  0.15326703  1
  Br  Br54  1  0.18889623  0.58834275  0.15326721  1
  Br  Br55  1  0.65326693  0.18889605  0.91165745  1
  Br  Br56  1  0.15326715  0.31110404  0.08834277  1
  Br  Br57  1  0.41165725  0.65326677  0.31110364  1
  Br  Br58  1  0.41165741  0.84673311  0.81110356  1
  Br  Br59  1  0.68889639  0.58834258  0.34673304  1
  Br  Br60  1  0.41165740  0.15326709  0.68889572  1
  Br  Br61  1  0.58834269  0.65326705  0.81110410  1
  Br  Br62  1  0.58834274  0.34673307  0.68889654  1
  Br  Br63  1  0.31110384  0.91165722  0.34673277  1
  Br  Br64  1  0.68889625  0.41165728  0.15326701  1
  Br  Br65  1  0.18889619  0.91165738  0.65326705  1
  Br  Br66  1  0.81110348  0.58834283  0.65326690  1
  Br  Br67  1  0.84673305  0.18889630  0.08834260  1
  Br  Br68  1  0.34673280  0.18889593  0.41165718  1
  Br  Br69  1  0.81110371  0.08834270  0.34673301  1
  Br  Br70  1  0.18889650  0.41165713  0.34673309  1
  Br  Br71  1  0.15326699  0.81110378  0.91165741  1
  Br  Br72  1  0.15326683  0.18889641  0.58834284  1
  Br  Br73  1  0.84673301  0.31110397  0.58834256  1
  Br  Br74  1  0.31110345  0.08834283  0.15326686  1
  Br  Br75  1  0.34673308  0.68889630  0.58834257  1
  Br  Br76  1  0.34673314  0.31110367  0.91165710  1
  Br  Br77  1  0.58834252  0.84673286  0.31110406  1
  Br  Br78  1  0.41165749  0.34673293  0.18889603  1
  Br  Br79  1  0.58834259  0.15326676  0.18889635  1
  Br  Br80  1  0.31110358  0.41165742  0.65326686  1
  Br  Br81  1  0.68889600  0.08834269  0.65326714  1
  Br  Br82  1  0.31110384  0.58834267  0.84673289  1
  Br  Br83  1  0.68889651  0.91165719  0.84673315  1
  Br  Br84  1  0.84673292  0.81110373  0.41165726  1
  Br  Br85  1  0.15326690  0.68889610  0.41165749  1
  Br  Br86  1  0.65326692  0.31110371  0.41165743  1
  Br  Br87  1  0.65326709  0.68889629  0.08834283  1
  Br  Br88  1  0.34673318  0.81110385  0.08834248  1
  Br  Br89  1  0.84673316  0.68889603  0.91165724  1
  Br  Br90  1  0.08834279  0.84673316  0.18889636  1
  Br  Br91  1  0.91165750  0.65326709  0.18889603  1
  Br  Br92  1  0.08834246  0.15326702  0.31110395  1
  Br  Br93  1  0.91165741  0.34673321  0.31110370  1
  Br  Br94  1  0.18889643  0.08834263  0.84673306  1
  Br  Br95  1  0.81110394  0.41165733  0.84673288  1
