# generated using pymatgen
data_LiI
_symmetry_space_group_name_H-M   'P 1'
_cell_length_a   12.49028191
_cell_length_b   12.49029393
_cell_length_c   9.02490373
_cell_angle_alpha   90.00140378
_cell_angle_beta   89.99852222
_cell_angle_gamma   120.00652749
_symmetry_Int_Tables_number   1
_chemical_formula_structural   LiI
_chemical_formula_sum   'Li18 I18'
_cell_volume   1219.24094628
_cell_formula_units_Z   18
loop_
 _symmetry_equiv_pos_site_id
 _symmetry_equiv_pos_as_xyz
  1  'x, y, z'
loop_
 _atom_site_type_symbol
 _atom_site_label
 _atom_site_symmetry_multiplicity
 _atom_site_fract_x
 _atom_site_fract_y
 _atom_site_fract_z
 _atom_site_occupancy
  Li  Li0  1  0.66768431  0.93976056  0.51468649  1
  Li  Li1  1  0.66775515  0.72792123  0.01469637  1
  Li  Li2  1  0.39358260  0.99873496  0.68130978  1
  Li  Li3  1  0.60515027  0.60647670  0.68129041  1
  Li  Li4  1  0.72703918  0.06141132  0.84807834  1
  Li  Li5  1  0.06023506  0.72792129  0.51468052  1
  Li  Li6  1  0.60516419  0.99869890  0.18130258  1
  Li  Li7  1  0.39351766  0.39484882  0.18128477  1
  Li  Li8  1  0.27208349  0.33224611  0.51469134  1
  Li  Li9  1  0.27207916  0.93976232  0.01468196  1
  Li  Li10  1  0.00126474  0.60642163  0.18130447  1
  Li  Li11  1  0.00130242  0.39483723  0.68129942  1
  Li  Li12  1  0.93859940  0.66559939  0.84807541  1
  Li  Li13  1  0.93858768  0.27296612  0.34807819  1
  Li  Li14  1  0.06024016  0.33231456  0.01468397  1
  Li  Li15  1  0.72706741  0.66566665  0.34808262  1
  Li  Li16  1  0.33433033  0.27293203  0.84808409  1
  Li  Li17  1  0.33439348  0.06140114  0.34807952  1
  I  I18  1  0.10565843  0.24309505  0.75254849  1
  I  I19  1  0.10569189  0.86258384  0.25255916  1
  I  I20  1  0.09025184  0.56101657  0.91916746  1
  I  I21  1  0.47074437  0.90974870  0.91914673  1
  I  I22  1  0.42350331  0.19599965  0.08595884  1
  I  I23  1  0.75691708  0.86261770  0.75253718  1
  I  I24  1  0.47075138  0.56099096  0.41917353  1
  I  I25  1  0.09024952  0.52925913  0.41914295  1
  I  I26  1  0.13741805  0.89430464  0.75256235  1
  I  I27  1  0.13737976  0.24308120  0.25253760  1
  I  I28  1  0.43898372  0.90975097  0.41916891  1
  I  I29  1  0.43900627  0.52925041  0.91917512  1
  I  I30  1  0.80401781  0.22753879  0.08598908  1
  I  I31  1  0.80399980  0.57649196  0.58595703  1
  I  I32  1  0.75690773  0.89434292  0.25255465  1
  I  I33  1  0.42353734  0.22755880  0.58598490  1
  I  I34  1  0.77244372  0.57646689  0.08598139  1
  I  I35  1  0.77246127  0.19598086  0.58599083  1
