# generated using pymatgen
data_LiI
_symmetry_space_group_name_H-M   'P 1'
_cell_length_a   12.95649477
_cell_length_b   12.95649766
_cell_length_c   7.32820847
_cell_angle_alpha   89.99996946
_cell_angle_beta   90.00000801
_cell_angle_gamma   89.99997210
_symmetry_Int_Tables_number   1
_chemical_formula_structural   LiI
_chemical_formula_sum   'Li16 I16'
_cell_volume   1230.19217554
_cell_formula_units_Z   16
loop_
 _symmetry_equiv_pos_site_id
 _symmetry_equiv_pos_as_xyz
  1  'x, y, z'
loop_
 _atom_site_type_symbol
 _atom_site_label
 _atom_site_symmetry_multiplicity
 _atom_site_fract_x
 _atom_site_fract_y
 _atom_site_fract_z
 _atom_site_occupancy
  Li  Li0  1  0.38586076  0.24377672  0.85519068  1
  Li  Li1  1  0.75622325  0.38586070  0.85518942  1
  Li  Li2  1  0.61413953  0.24377694  0.14481026  1
  Li  Li3  1  0.74377694  0.11413923  0.64481015  1
  Li  Li4  1  0.88586075  0.25622305  0.35518972  1
  Li  Li5  1  0.25622317  0.88586068  0.64481065  1
  Li  Li6  1  0.11413961  0.25622325  0.64480944  1
  Li  Li7  1  0.88586034  0.74377680  0.64481016  1
  Li  Li8  1  0.74377636  0.88586041  0.35519033  1
  Li  Li9  1  0.11413915  0.74377701  0.35518982  1
  Li  Li10  1  0.25622361  0.11413956  0.35518975  1
  Li  Li11  1  0.61413926  0.75622332  0.85519053  1
  Li  Li12  1  0.24377659  0.61413952  0.85518954  1
  Li  Li13  1  0.75622379  0.61413935  0.14480910  1
  Li  Li14  1  0.38586061  0.75622293  0.14481091  1
  Li  Li15  1  0.24377637  0.38586058  0.14480952  1
  I  I16  1  0.24855359  0.90705169  0.26390866  1
  I  I17  1  0.09294854  0.24855338  0.26390743  1
  I  I18  1  0.75144603  0.90705168  0.73609229  1
  I  I19  1  0.40705159  0.25144699  0.23609251  1
  I  I20  1  0.74855331  0.59294834  0.76390735  1
  I  I21  1  0.59294828  0.74855285  0.23609258  1
  I  I22  1  0.25144585  0.59294828  0.23609145  1
  I  I23  1  0.74855418  0.40705165  0.23609106  1
  I  I24  1  0.40705146  0.74855380  0.76390897  1
  I  I25  1  0.25144670  0.40705157  0.76390734  1
  I  I26  1  0.59294826  0.25144617  0.76390870  1
  I  I27  1  0.75144634  0.09294827  0.26390860  1
  I  I28  1  0.90705169  0.75144658  0.26390786  1
  I  I29  1  0.09294828  0.75144667  0.73609171  1
  I  I30  1  0.24855386  0.09294853  0.73609224  1
  I  I31  1  0.90705196  0.24855351  0.73609127  1
