# generated using pymatgen
data_LiI
_symmetry_space_group_name_H-M   'P 1'
_cell_length_a   7.44586472
_cell_length_b   9.24607073
_cell_length_c   3.98726310
_cell_angle_alpha   89.98935073
_cell_angle_beta   90.00005344
_cell_angle_gamma   90.00046678
_symmetry_Int_Tables_number   1
_chemical_formula_structural   LiI
_chemical_formula_sum   'Li4 I4'
_cell_volume   274.50309080
_cell_formula_units_Z   4
loop_
 _symmetry_equiv_pos_site_id
 _symmetry_equiv_pos_as_xyz
  1  'x, y, z'
loop_
 _atom_site_type_symbol
 _atom_site_label
 _atom_site_symmetry_multiplicity
 _atom_site_fract_x
 _atom_site_fract_y
 _atom_site_fract_z
 _atom_site_occupancy
  Li  Li0  1  0.98110907  0.75563273  0.00137193  1
  Li  Li1  1  0.51889076  0.25563240  -0.00138658  1
  Li  Li2  1  0.01889081  0.24436818  0.00138679  1
  Li  Li3  1  0.48110888  0.74436680  -0.00137191  1
  I  I4  1  0.26413300  0.34687828  0.50492682  1
  I  I5  1  0.23586873  0.84687835  0.49502037  1
  I  I6  1  0.73586720  0.65312135  0.50497874  1
  I  I7  1  0.76413156  0.15312190  0.49507384  1
