# generated using pymatgen
data_LiBr
_symmetry_space_group_name_H-M   'P 1'
_cell_length_a   6.59525377
_cell_length_b   6.59518314
_cell_length_c   3.96090348
_cell_angle_alpha   89.99877306
_cell_angle_beta   89.99715490
_cell_angle_gamma   120.00947263
_symmetry_Int_Tables_number   1
_chemical_formula_structural   LiBr
_chemical_formula_sum   'Li3 Br3'
_cell_volume   149.19071628
_cell_formula_units_Z   3
loop_
 _symmetry_equiv_pos_site_id
 _symmetry_equiv_pos_as_xyz
  1  'x, y, z'
loop_
 _atom_site_type_symbol
 _atom_site_label
 _atom_site_symmetry_multiplicity
 _atom_site_fract_x
 _atom_site_fract_y
 _atom_site_fract_z
 _atom_site_occupancy
  Li  Li0  1  0.05844033  -0.27615264  0.79067576  1
  Li  Li1  1  0.27612859  0.33453520  0.45752908  1
  Li  Li2  1  0.66533203  0.94147056  0.12391231  1
  Br  Br3  1  0.02456296  0.33302013  0.95783453  1
  Br  Br4  1  0.66705426  0.69152435  0.62420582  1
  Br  Br5  1  0.30848184  -0.02439760  0.29093184  1
