# generated using pymatgen
data_KI
_symmetry_space_group_name_H-M   'P 1'
_cell_length_a   19.35421070
_cell_length_b   19.51348986
_cell_length_c   4.86980003
_cell_angle_alpha   89.99615649
_cell_angle_beta   89.99899900
_cell_angle_gamma   90.21152897
_symmetry_Int_Tables_number   1
_chemical_formula_structural   KI
_chemical_formula_sum   'K16 I16'
_cell_volume   1839.15604661
_cell_formula_units_Z   16
loop_
 _symmetry_equiv_pos_site_id
 _symmetry_equiv_pos_as_xyz
  1  'x, y, z'
loop_
 _atom_site_type_symbol
 _atom_site_label
 _atom_site_symmetry_multiplicity
 _atom_site_fract_x
 _atom_site_fract_y
 _atom_site_fract_z
 _atom_site_occupancy
  K  K0  1  0.81502872  0.58948979  0.49783990  1
  K  K1  1  0.18497528  0.41051158  0.49776645  1
  K  K2  1  0.41144784  0.81663536  -0.00155189  1
  K  K3  1  0.68497504  0.41050988  -0.00222736  1
  K  K4  1  0.91144757  0.81663570  0.49844370  1
  K  K5  1  0.08855026  0.68336694  -0.00150351  1
  K  K6  1  0.31502835  0.58949112  -0.00214898  1
  K  K7  1  0.91145088  0.31663681  -0.00154263  1
  K  K8  1  0.08855085  0.18336492  0.49848844  1
  K  K9  1  0.31502729  0.08948774  0.49784200  1
  K  K10  1  0.68497325  0.91051063  0.49777032  1
  K  K11  1  0.41144765  0.31663675  0.49844787  1
  K  K12  1  0.58855036  0.68336659  0.49848872  1
  K  K13  1  0.58854741  0.18336479  -0.00150733  1
  K  K14  1  0.81502798  0.08948995  -0.00215219  1
  K  K15  1  0.18497289  0.91050912  -0.00222055  1
  I  I16  1  0.59157355  0.81793880  -0.00251151  1
  I  I17  1  0.40842201  0.18206001  -0.00249419  1
  I  I18  1  0.67911021  0.08841216  0.49797190  1
  I  I19  1  0.90842411  0.18205979  0.49751367  1
  I  I20  1  0.17911064  0.08841069  -0.00203259  1
  I  I21  1  0.82089218  0.41158813  0.49789079  1
  I  I22  1  0.09157206  0.81793826  0.49749657  1
  I  I23  1  0.17911202  0.58841482  0.49797171  1
  I  I24  1  0.82089048  0.91158708  -0.00212074  1
  I  I25  1  0.09157567  0.31793770  -0.00251630  1
  I  I26  1  0.90842389  0.68205961  -0.00249706  1
  I  I27  1  0.67911210  0.58841324  -0.00203505  1
  I  I28  1  0.32089102  0.41158907  -0.00211721  1
  I  I29  1  0.32088962  0.91158506  0.49788319  1
  I  I30  1  0.59157379  0.31793806  0.49748894  1
  I  I31  1  0.40842503  0.68205986  0.49751060  1
