# generated using pymatgen
data_NaI
_symmetry_space_group_name_H-M   'P 1'
_cell_length_a   6.52147566
_cell_length_b   6.53425112
_cell_length_c   6.53908238
_cell_angle_alpha   89.99980216
_cell_angle_beta   90.00005466
_cell_angle_gamma   89.99998750
_symmetry_Int_Tables_number   1
_chemical_formula_structural   NaI
_chemical_formula_sum   'Na4 I4'
_cell_volume   278.64965348
_cell_formula_units_Z   4
loop_
 _symmetry_equiv_pos_site_id
 _symmetry_equiv_pos_as_xyz
  1  'x, y, z'
loop_
 _atom_site_type_symbol
 _atom_site_label
 _atom_site_symmetry_multiplicity
 _atom_site_fract_x
 _atom_site_fract_y
 _atom_site_fract_z
 _atom_site_occupancy
  Na  Na0  1  0.49941563  0.24903497  0.52213255  1
  Na  Na1  1  -0.00058565  0.75096534  0.52213255  1
  Na  Na2  1  0.50058509  0.75096519  0.02213298  1
  Na  Na3  1  0.00058319  0.24903471  0.02213327  1
  I  I4  1  0.50054194  0.25059051  0.02168241  1
  I  I5  1  0.00054319  0.74940928  0.02168344  1
  I  I6  1  0.49945793  0.74940907  0.52168484  1
  I  I7  1  -0.00054132  0.25059092  0.52168407  1
