# generated using pymatgen
data_LiBr
_symmetry_space_group_name_H-M   'P 1'
_cell_length_a   10.18892508
_cell_length_b   11.45845699
_cell_length_c   8.56709514
_cell_angle_alpha   90.00003079
_cell_angle_beta   90.00000702
_cell_angle_gamma   90.00003909
_symmetry_Int_Tables_number   1
_chemical_formula_structural   LiBr
_chemical_formula_sum   'Li16 Br16'
_cell_volume   1000.20287346
_cell_formula_units_Z   16
loop_
 _symmetry_equiv_pos_site_id
 _symmetry_equiv_pos_as_xyz
  1  'x, y, z'
loop_
 _atom_site_type_symbol
 _atom_site_label
 _atom_site_symmetry_multiplicity
 _atom_site_fract_x
 _atom_site_fract_y
 _atom_site_fract_z
 _atom_site_occupancy
  Li  Li0  1  -0.00040830  0.64310326  0.48583023  1
  Li  Li1  1  0.00040861  0.35689790  0.48583067  1
  Li  Li2  1  0.25040783  0.89310245  0.73583012  1
  Li  Li3  1  0.50040730  0.35689678  -0.01417021  1
  Li  Li4  1  0.75040659  0.89310352  0.23582846  1
  Li  Li5  1  0.24959304  0.60689658  0.73583004  1
  Li  Li6  1  0.49959309  0.64310341  -0.01417123  1
  Li  Li7  1  0.75040817  0.39310265  0.73582998  1
  Li  Li8  1  0.24959120  0.10689735  0.23583058  1
  Li  Li9  1  0.49959228  0.14310266  0.48583008  1
  Li  Li10  1  0.50040700  0.85689746  0.48582906  1
  Li  Li11  1  0.25040850  0.39310205  0.23583017  1
  Li  Li12  1  0.74959331  0.60689701  0.23582995  1
  Li  Li13  1  0.74959225  0.10689672  0.73582975  1
  Li  Li14  1  -0.00040691  0.14310329  -0.01417046  1
  Li  Li15  1  0.00040666  0.85689663  -0.01417074  1
  Br  Br16  1  0.80631132  -0.00016424  0.98577972  1
  Br  Br17  1  0.19368829  0.00016451  0.98578020  1
  Br  Br18  1  0.44368856  0.24983525  0.23578039  1
  Br  Br19  1  0.69368835  0.00016456  0.48577964  1
  Br  Br20  1  0.94368856  0.24983595  0.73578012  1
  Br  Br21  1  0.05631129  0.25016509  0.23578062  1
  Br  Br22  1  0.30631060  -0.00016442  0.48578045  1
  Br  Br23  1  0.94368845  0.74983657  0.23578134  1
  Br  Br24  1  0.05631155  0.75016396  0.73578008  1
  Br  Br25  1  0.30631167  0.49983502  0.98578022  1
  Br  Br26  1  0.69368888  0.50016399  0.98578048  1
  Br  Br27  1  0.44368894  0.74983551  0.73577931  1
  Br  Br28  1  0.55631161  0.25016455  0.73577985  1
  Br  Br29  1  0.55631126  0.75016476  0.23577920  1
  Br  Br30  1  0.80631145  0.49983482  0.48577974  1
  Br  Br31  1  0.19368862  0.50016440  0.48578041  1
