# generated using pymatgen
data_LiBr
_symmetry_space_group_name_H-M   'P 1'
_cell_length_a   10.83026611
_cell_length_b   12.16576007
_cell_length_c   7.87436325
_cell_angle_alpha   89.99997216
_cell_angle_beta   89.99997175
_cell_angle_gamma   89.99982077
_symmetry_Int_Tables_number   1
_chemical_formula_structural   LiBr
_chemical_formula_sum   'Li16 Br16'
_cell_volume   1037.51365223
_cell_formula_units_Z   16
loop_
 _symmetry_equiv_pos_site_id
 _symmetry_equiv_pos_as_xyz
  1  'x, y, z'
loop_
 _atom_site_type_symbol
 _atom_site_label
 _atom_site_symmetry_multiplicity
 _atom_site_fract_x
 _atom_site_fract_y
 _atom_site_fract_z
 _atom_site_occupancy
  Li  Li0  1  0.74955198  0.38654948  0.63359311  1
  Li  Li1  1  0.25044755  0.61345077  0.63359393  1
  Li  Li2  1  0.50044404  0.63654697  0.88360264  1
  Li  Li3  1  0.75044610  0.61345384  0.13359482  1
  Li  Li4  1  0.00044692  0.63654828  0.38359323  1
  Li  Li5  1  -0.00044611  0.86345206  0.88359336  1
  Li  Li6  1  0.24955429  0.38654556  0.13359707  1
  Li  Li7  1  0.00044664  0.13654883  0.88359330  1
  Li  Li8  1  -0.00044709  0.36345231  0.38359294  1
  Li  Li9  1  0.24955441  0.88654624  0.63359716  1
  Li  Li10  1  0.75044594  0.11345371  0.63359674  1
  Li  Li11  1  0.50044454  0.13654661  0.38360020  1
  Li  Li12  1  0.49955657  0.86345244  0.38360222  1
  Li  Li13  1  0.49955371  0.36345245  0.88359803  1
  Li  Li14  1  0.74955299  0.88654935  0.13359414  1
  Li  Li15  1  0.25044709  0.11345107  0.13359516  1
  Br  Br16  1  0.43056586  0.75042212  0.63425266  1
  Br  Br17  1  0.56943420  0.24957765  0.63424980  1
  Br  Br18  1  0.81943615  0.00042459  0.88424826  1
  Br  Br19  1  0.06943592  0.24957602  0.13424747  1
  Br  Br20  1  0.31943525  0.00042105  0.38424856  1
  Br  Br21  1  0.68056398  0.49957748  0.88424918  1
  Br  Br22  1  0.93056410  0.75042403  0.13424656  1
  Br  Br23  1  0.31943366  0.50042236  0.88425029  1
  Br  Br24  1  0.68056610  -0.00042203  0.38424938  1
  Br  Br25  1  0.93056322  0.25042456  0.63424694  1
  Br  Br26  1  0.06943645  0.74957629  0.63424671  1
  Br  Br27  1  0.81943552  0.50042443  0.38424690  1
  Br  Br28  1  0.18056470  0.49957566  0.38424790  1
  Br  Br29  1  0.18056450  -0.00042406  0.88424836  1
  Br  Br30  1  0.43056586  0.25042162  0.13425017  1
  Br  Br31  1  0.56943494  0.74957827  0.13425155  1
