# generated using pymatgen
data_LiI
_symmetry_space_group_name_H-M   'P 1'
_cell_length_a   12.41488144
_cell_length_b   10.53206846
_cell_length_c   9.45268983
_cell_angle_alpha   90.00007602
_cell_angle_beta   90.00003611
_cell_angle_gamma   90.00083480
_symmetry_Int_Tables_number   1
_chemical_formula_structural   LiI
_chemical_formula_sum   'Li16 I16'
_cell_volume   1235.98061033
_cell_formula_units_Z   16
loop_
 _symmetry_equiv_pos_site_id
 _symmetry_equiv_pos_as_xyz
  1  'x, y, z'
loop_
 _atom_site_type_symbol
 _atom_site_label
 _atom_site_symmetry_multiplicity
 _atom_site_fract_x
 _atom_site_fract_y
 _atom_site_fract_z
 _atom_site_occupancy
  Li  Li0  1  0.88824426  0.75019667  0.58265066  1
  Li  Li1  1  0.11175565  0.24980346  0.58264901  1
  Li  Li2  1  0.36175372  0.00019613  0.83264966  1
  Li  Li3  1  0.61175449  0.24980345  0.08265004  1
  Li  Li4  1  0.86175406  0.00019418  0.33264871  1
  Li  Li5  1  0.13824725  0.49980510  0.83264748  1
  Li  Li6  1  0.38824347  0.75019679  0.08265037  1
  Li  Li7  1  0.86175436  0.50019461  0.83264809  1
  Li  Li8  1  0.13824324  -0.00019574  0.33264947  1
  Li  Li9  1  0.38824707  0.25019689  0.58265033  1
  Li  Li10  1  0.61175281  0.74980460  0.58265152  1
  Li  Li11  1  0.36175492  0.50019505  0.33264789  1
  Li  Li12  1  0.63824747  0.49980597  0.33264715  1
  Li  Li13  1  0.63824291  -0.00019545  0.83264905  1
  Li  Li14  1  0.88824869  0.25019573  0.08265018  1
  Li  Li15  1  0.11175426  0.74980193  0.08265151  1
  I  I16  1  -0.00017996  0.79155780  0.33238298  1
  I  I17  1  0.00017712  0.20844036  0.33238465  1
  I  I18  1  0.25016925  0.04155960  0.58238890  1
  I  I19  1  0.50017745  0.20844173  0.83238337  1
  I  I20  1  0.75016935  0.04155933  0.08238828  1
  I  I21  1  0.24983140  0.45844178  0.58238877  1
  I  I22  1  0.49982096  0.79155920  0.83238307  1
  I  I23  1  0.75016810  0.54155880  0.58239084  1
  I  I24  1  0.24983022  0.95844153  0.08238995  1
  I  I25  1  0.49982334  0.29155896  0.33238322  1
  I  I26  1  0.50017866  0.70844183  0.33238083  1
  I  I27  1  0.25016978  0.54155736  0.08239038  1
  I  I28  1  0.74983325  0.45844185  0.08239033  1
  I  I29  1  0.74983131  0.95844115  0.58239026  1
  I  I30  1  -0.00017668  0.29155790  0.83238118  1
  I  I31  1  0.00017783  0.70844145  0.83238244  1
