# generated using pymatgen
data_LiBr
_symmetry_space_group_name_H-M   'P 1'
_cell_length_a   9.88244195
_cell_length_b   11.32079630
_cell_length_c   8.70699309
_cell_angle_alpha   90.00000106
_cell_angle_beta   89.99997976
_cell_angle_gamma   90.00776871
_symmetry_Int_Tables_number   1
_chemical_formula_structural   LiBr
_chemical_formula_sum   'Li16 Br16'
_cell_volume   974.11323388
_cell_formula_units_Z   16
loop_
 _symmetry_equiv_pos_site_id
 _symmetry_equiv_pos_as_xyz
  1  'x, y, z'
loop_
 _atom_site_type_symbol
 _atom_site_label
 _atom_site_symmetry_multiplicity
 _atom_site_fract_x
 _atom_site_fract_y
 _atom_site_fract_z
 _atom_site_occupancy
  Li  Li0  1  0.75002089  0.89514535  0.52187453  1
  Li  Li1  1  0.24997914  0.10485397  0.52187489  1
  Li  Li2  1  0.50006850  0.14508076  0.77156371  1
  Li  Li3  1  0.74997921  0.10485342  0.02187436  1
  Li  Li4  1  0.00006824  0.14508036  0.27156426  1
  Li  Li5  1  -0.00006849  0.35492073  0.77156501  1
  Li  Li6  1  0.25002106  0.89514531  0.02187416  1
  Li  Li7  1  0.00006742  0.64507974  0.77156454  1
  Li  Li8  1  -0.00006756  0.85491962  0.27156454  1
  Li  Li9  1  0.25001974  0.39514495  0.52187388  1
  Li  Li10  1  0.74997989  0.60485473  0.52187388  1
  Li  Li11  1  0.50006725  0.64508001  0.27156506  1
  Li  Li12  1  0.49993186  0.35492045  0.27156443  1
  Li  Li13  1  0.49993204  0.85491927  0.77156467  1
  Li  Li14  1  0.75001981  0.39514474  0.02187441  1
  Li  Li15  1  0.24998036  0.60485506  0.02187427  1
  Br  Br16  1  -0.05086710  0.74993239  0.52169239  1
  Br  Br17  1  0.05086675  0.25006707  0.52169304  1
  Br  Br18  1  0.30090760  -0.00008863  0.77182457  1
  Br  Br19  1  0.55086694  0.25006693  0.02169242  1
  Br  Br20  1  0.80090717  -0.00008902  0.27182455  1
  Br  Br21  1  0.19909329  0.50008907  0.77182378  1
  Br  Br22  1  0.44913342  0.74993261  0.02169264  1
  Br  Br23  1  0.80090599  0.49991176  0.77182399  1
  Br  Br24  1  0.19909357  0.00008927  0.27182388  1
  Br  Br25  1  0.44913238  0.24993256  0.52169215  1
  Br  Br26  1  0.55086781  0.75006760  0.52169276  1
  Br  Br27  1  0.30090610  0.49991164  0.27182366  1
  Br  Br28  1  0.69909291  0.50008897  0.27182401  1
  Br  Br29  1  0.69909340  0.00008901  0.77182369  1
  Br  Br30  1  -0.05086741  0.24993286  0.02169254  1
  Br  Br31  1  0.05086783  0.75006745  0.02169269  1
