# generated using pymatgen
data_LiI
_symmetry_space_group_name_H-M   'P 1'
_cell_length_a   7.26516464
_cell_length_b   9.18775790
_cell_length_c   7.23839729
_cell_angle_alpha   89.99713351
_cell_angle_beta   90.00267317
_cell_angle_gamma   89.99896090
_symmetry_Int_Tables_number   1
_chemical_formula_structural   LiI
_chemical_formula_sum   'Li8 I8'
_cell_volume   483.16717119
_cell_formula_units_Z   8
loop_
 _symmetry_equiv_pos_site_id
 _symmetry_equiv_pos_as_xyz
  1  'x, y, z'
loop_
 _atom_site_type_symbol
 _atom_site_label
 _atom_site_symmetry_multiplicity
 _atom_site_fract_x
 _atom_site_fract_y
 _atom_site_fract_z
 _atom_site_occupancy
  Li  Li0  1  0.74927561  0.49930709  0.00004156  1
  Li  Li1  1  0.74927621  0.00069431  0.50002767  1
  Li  Li2  1  0.24927527  0.50067138  0.49995496  1
  Li  Li3  1  0.75072187  0.00062393  0.00002534  1
  Li  Li4  1  0.25072306  -0.00066417  0.49996728  1
  Li  Li5  1  0.75072588  0.49936144  0.50004763  1
  Li  Li6  1  0.24927983  -0.00066137  -0.00002691  1
  Li  Li7  1  0.25072461  0.50066845  -0.00003746  1
  I  I8  1  0.00054322  0.12895019  0.25006017  1
  I  I9  1  0.00054427  0.37105325  0.75005597  1
  I  I10  1  0.50053728  0.87104749  0.24993714  1
  I  I11  1  0.49944938  0.37105054  0.25008413  1
  I  I12  1  -0.00054572  0.62895129  0.24991731  1
  I  I13  1  0.49946307  0.12894558  0.75009359  1
  I  I14  1  0.50054846  0.62895730  0.74994753  1
  I  I15  1  -0.00054228  0.87104330  0.74990408  1
