# generated using pymatgen
data_KI
_symmetry_space_group_name_H-M   'P 1'
_cell_length_a   10.19432273
_cell_length_b   7.18977687
_cell_length_c   5.06575766
_cell_angle_alpha   89.99999127
_cell_angle_beta   90.00000091
_cell_angle_gamma   90.00351403
_symmetry_Int_Tables_number   1
_chemical_formula_structural   KI
_chemical_formula_sum   'K4 I4'
_cell_volume   371.29423008
_cell_formula_units_Z   4
loop_
 _symmetry_equiv_pos_site_id
 _symmetry_equiv_pos_as_xyz
  1  'x, y, z'
loop_
 _atom_site_type_symbol
 _atom_site_label
 _atom_site_symmetry_multiplicity
 _atom_site_fract_x
 _atom_site_fract_y
 _atom_site_fract_z
 _atom_site_occupancy
  K  K0  1  0.37354773  0.74974051  0.70893218  1
  K  K1  1  0.87354889  0.75025748  0.70893135  1
  K  K2  1  0.62645226  0.25025949  0.20893208  1
  K  K3  1  0.12645112  0.24974252  0.20893115  1
  I  I4  1  0.62396505  0.74985288  0.20895154  1
  I  I5  1  0.12396480  0.75014864  0.20895149  1
  I  I6  1  0.37603495  0.25014712  0.70895155  1
  I  I7  1  0.87603519  0.24985136  0.70895129  1
