# generated using pymatgen
data_LiBr
_symmetry_space_group_name_H-M   'P 1'
_cell_length_a   11.09552232
_cell_length_b   9.52963902
_cell_length_c   8.89641282
_cell_angle_alpha   89.99998897
_cell_angle_beta   89.99998385
_cell_angle_gamma   89.98219916
_symmetry_Int_Tables_number   1
_chemical_formula_structural   LiBr
_chemical_formula_sum   'Li16 Br16'
_cell_volume   940.67392935
_cell_formula_units_Z   16
loop_
 _symmetry_equiv_pos_site_id
 _symmetry_equiv_pos_as_xyz
  1  'x, y, z'
loop_
 _atom_site_type_symbol
 _atom_site_label
 _atom_site_symmetry_multiplicity
 _atom_site_fract_x
 _atom_site_fract_y
 _atom_site_fract_z
 _atom_site_occupancy
  Li  Li0  1  0.14801155  0.00013100  0.85338833  1
  Li  Li1  1  0.85198626  -0.00013116  0.85338798  1
  Li  Li2  1  0.10205384  0.25020952  0.10326857  1
  Li  Li3  1  0.35198938  -0.00013117  0.35338772  1
  Li  Li4  1  0.60205473  0.25020998  0.60326824  1
  Li  Li5  1  0.39794709  0.24979027  0.10326931  1
  Li  Li6  1  0.64801416  0.00013090  0.35338786  1
  Li  Li7  1  0.60205436  0.75020950  0.10326951  1
  Li  Li8  1  0.39794491  0.74979050  0.60326900  1
  Li  Li9  1  0.64801103  0.50013145  0.85338781  1
  Li  Li10  1  0.35198923  0.49986895  0.85338765  1
  Li  Li11  1  0.10205341  0.75021056  0.60326769  1
  Li  Li12  1  0.89794587  0.24979019  0.60326920  1
  Li  Li13  1  0.89794640  0.74979002  0.10326847  1
  Li  Li14  1  0.14801134  0.50013106  0.35338810  1
  Li  Li15  1  0.85198973  0.49986837  0.35338733  1
  Br  Br16  1  0.49999094  0.79379868  0.35306693  1
  Br  Br17  1  0.50001029  0.20620148  0.35306707  1
  Br  Br18  1  0.75005607  0.04380647  0.60314728  1
  Br  Br19  1  0.00000860  0.20620154  0.85306602  1
  Br  Br20  1  0.25005583  0.04380712  0.10314619  1
  Br  Br21  1  0.74994404  0.45619321  0.60314692  1
  Br  Br22  1  -0.00001038  0.79379800  0.85306649  1
  Br  Br23  1  0.25005538  0.54380786  0.60314704  1
  Br  Br24  1  0.74994408  -0.04380735  0.10314557  1
  Br  Br25  1  -0.00001018  0.29379809  0.35306680  1
  Br  Br26  1  0.00000878  0.70620200  0.35306639  1
  Br  Br27  1  0.75005595  0.54380655  0.10314601  1
  Br  Br28  1  0.24994360  0.45619265  0.10314557  1
  Br  Br29  1  0.24994319  -0.04380633  0.60314635  1
  Br  Br30  1  0.49999074  0.29379786  0.85306618  1
  Br  Br31  1  0.50000980  0.70620225  0.85306673  1
