# generated using pymatgen
data_LiBr
_symmetry_space_group_name_H-M   'P 1'
_cell_length_a   4.31119908
_cell_length_b   7.22818637
_cell_length_c   6.97092623
_cell_angle_alpha   89.99703667
_cell_angle_beta   89.99926809
_cell_angle_gamma   89.99988429
_symmetry_Int_Tables_number   1
_chemical_formula_structural   LiBr
_chemical_formula_sum   'Li4 Br4'
_cell_volume   217.22905173
_cell_formula_units_Z   4
loop_
 _symmetry_equiv_pos_site_id
 _symmetry_equiv_pos_as_xyz
  1  'x, y, z'
loop_
 _atom_site_type_symbol
 _atom_site_label
 _atom_site_symmetry_multiplicity
 _atom_site_fract_x
 _atom_site_fract_y
 _atom_site_fract_z
 _atom_site_occupancy
  Li  Li0  1  0.75172820  0.15354520  0.34717127  1
  Li  Li1  1  0.24827090  0.65355318  0.15281692  1
  Li  Li2  1  0.74826658  0.84645555  0.84721300  1
  Li  Li3  1  0.25173552  0.34646139  0.65280347  1
  Br  Br4  1  0.75164929  0.17142996  0.71863041  1
  Br  Br5  1  0.24835190  0.67143148  0.78136890  1
  Br  Br6  1  0.74834913  0.82856195  0.21865280  1
  Br  Br7  1  0.25164847  0.32856129  0.28134323  1
