# generated using pymatgen
data_LiI
_symmetry_space_group_name_H-M   'P 1'
_cell_length_a   7.69117819
_cell_length_b   4.57943485
_cell_length_c   8.69767057
_cell_angle_alpha   89.99983968
_cell_angle_beta   121.36675407
_cell_angle_gamma   90.00004065
_symmetry_Int_Tables_number   1
_chemical_formula_structural   LiI
_chemical_formula_sum   'Li4 I4'
_cell_volume   261.57173052
_cell_formula_units_Z   4
loop_
 _symmetry_equiv_pos_site_id
 _symmetry_equiv_pos_as_xyz
  1  'x, y, z'
loop_
 _atom_site_type_symbol
 _atom_site_label
 _atom_site_symmetry_multiplicity
 _atom_site_fract_x
 _atom_site_fract_y
 _atom_site_fract_z
 _atom_site_occupancy
  Li  Li0  1  0.22331288  -0.01085376  0.16759068  1
  Li  Li1  1  0.72331083  0.48914585  0.16759212  1
  Li  Li2  1  0.22331259  0.01085378  0.66758975  1
  Li  Li3  1  0.72331340  0.51085418  0.66759304  1
  I  I4  1  0.96317388  0.01026496  0.79601225  1
  I  I5  1  0.46317256  0.51026502  0.79601110  1
  I  I6  1  0.96317138  0.98973504  0.29601084  1
  I  I7  1  0.46317279  0.48973493  0.29601266  1
