# generated using pymatgen
data_LiBr
_symmetry_space_group_name_H-M   'P 1'
_cell_length_a   11.57865494
_cell_length_b   11.57867018
_cell_length_c   7.74382739
_cell_angle_alpha   90.00068679
_cell_angle_beta   89.99935503
_cell_angle_gamma   120.00238768
_symmetry_Int_Tables_number   1
_chemical_formula_structural   LiBr
_chemical_formula_sum   'Li18 Br18'
_cell_volume   899.06820740
_cell_formula_units_Z   18
loop_
 _symmetry_equiv_pos_site_id
 _symmetry_equiv_pos_as_xyz
  1  'x, y, z'
loop_
 _atom_site_type_symbol
 _atom_site_label
 _atom_site_symmetry_multiplicity
 _atom_site_fract_x
 _atom_site_fract_y
 _atom_site_fract_z
 _atom_site_occupancy
  Li  Li0  1  0.87138562  0.74102671  0.82086869  1
  Li  Li1  1  0.87138181  0.13036235  0.32087261  1
  Li  Li2  1  0.59234600  0.79534606  -0.01293752  1
  Li  Li3  1  0.20299186  0.40764964  -0.01293027  1
  Li  Li4  1  0.92566227  0.46384664  0.15504062  1
  Li  Li5  1  0.25896879  0.13035880  0.82088133  1
  Li  Li6  1  0.20299718  0.79533686  0.48707201  1
  Li  Li7  1  0.59234805  0.79700623  0.48706934  1
  Li  Li8  1  0.86963816  0.12861895  0.82087263  1
  Li  Li9  1  0.86963926  0.74103019  0.32087578  1
  Li  Li10  1  0.20465363  0.40765401  0.48706309  1
  Li  Li11  1  0.20466290  0.79700358  -0.01292947  1
  Li  Li12  1  0.53615209  0.46182156  0.15504120  1
  Li  Li13  1  0.53615491  0.07433784  0.65504182  1
  Li  Li14  1  0.25897434  0.12861489  0.32087239  1
  Li  Li15  1  0.92567152  0.46182863  0.65503313  1
  Li  Li16  1  0.53817304  0.07433005  0.15503535  1
  Li  Li17  1  0.53817958  0.46384846  0.65504200  1
  Br  Br18  1  0.09363551  0.54599403  0.41359280  1
  Br  Br19  1  0.09362715  0.54763471  0.91359269  1
  Br  Br20  1  0.78708106  0.57283104  0.58002009  1
  Br  Br21  1  0.78575059  0.21291168  0.58003429  1
  Br  Br22  1  0.12059131  0.88111453  0.74618517  1
  Br  Br23  1  0.45400939  0.54763874  0.41360298  1
  Br  Br24  1  0.78575228  0.57283663  0.08002014  1
  Br  Br25  1  0.78708943  0.21424966  0.08003440  1
  Br  Br26  1  0.45236509  0.90637292  0.41359332  1
  Br  Br27  1  0.45235935  0.54599045  0.91360090  1
  Br  Br28  1  0.42716892  0.21291784  0.08002546  1
  Br  Br29  1  0.42716493  0.21424699  0.58002210  1
  Br  Br30  1  0.11888366  0.23946668  0.74616471  1
  Br  Br31  1  0.11888468  0.87941165  0.24617993  1
  Br  Br32  1  0.45400395  0.90636427  0.91359336  1
  Br  Br33  1  0.12058356  0.23946368  0.24617009  1
  Br  Br34  1  0.76053646  0.87941595  0.74616654  1
  Br  Br35  1  0.76053167  0.88111708  0.24616469  1
