# generated using pymatgen
data_LiBr
_symmetry_space_group_name_H-M   'P 1'
_cell_length_a   11.33031400
_cell_length_b   11.33031811
_cell_length_c   8.00918615
_cell_angle_alpha   90.02178181
_cell_angle_beta   89.97816401
_cell_angle_gamma   120.02887468
_symmetry_Int_Tables_number   1
_chemical_formula_structural   LiBr
_chemical_formula_sum   'Li18 Br18'
_cell_volume   890.17745386
_cell_formula_units_Z   18
loop_
 _symmetry_equiv_pos_site_id
 _symmetry_equiv_pos_as_xyz
  1  'x, y, z'
loop_
 _atom_site_type_symbol
 _atom_site_label
 _atom_site_symmetry_multiplicity
 _atom_site_fract_x
 _atom_site_fract_y
 _atom_site_fract_z
 _atom_site_occupancy
  Li  Li0  1  0.26223046  0.13282426  0.30144810  1
  Li  Li1  1  0.26222727  0.12937659  0.80146166  1
  Li  Li2  1  0.20051131  0.40444185  0.46811502  1
  Li  Li3  1  0.20397494  0.79947106  0.46816674  1
  Li  Li4  1  0.53385994  0.46269038  0.63483247  1
  Li  Li5  1  0.86719533  0.12935986  0.30150049  1
  Li  Li6  1  0.20395635  0.40444032  -0.03186860  1
  Li  Li7  1  0.20052200  0.79602058  -0.03183262  1
  Li  Li8  1  0.87062886  0.73777743  0.30146600  1
  Li  Li9  1  0.87064051  0.13280743  0.80150027  1
  Li  Li10  1  0.59555668  0.79949056  -0.03188526  1
  Li  Li11  1  0.59556228  0.79604244  0.46813134  1
  Li  Li12  1  0.53728858  0.07110375  0.63480073  1
  Li  Li13  1  0.53730994  0.46613966  0.13483356  1
  Li  Li14  1  0.86717564  0.73777946  0.80144917  1
  Li  Li15  1  0.53384212  0.07110472  0.13478352  1
  Li  Li16  1  0.92889085  0.46615865  0.63478274  1
  Li  Li17  1  0.92889032  0.46270775  0.13479746  1
  Br  Br18  1  0.42592937  0.21147698  0.55987069  1
  Br  Br19  1  0.42591539  0.21447597  0.05986400  1
  Br  Br20  1  0.12185512  0.24073738  0.72653919  1
  Br  Br21  1  0.11884598  0.87815444  0.72653191  1
  Br  Br22  1  0.45517879  0.54782039  0.89319978  1
  Br  Br23  1  0.78851074  0.21448868  0.55986627  1
  Br  Br24  1  0.11885939  0.24075288  0.22653201  1
  Br  Br25  1  0.12184858  0.88115578  0.22653225  1
  Br  Br26  1  0.78552384  0.57408997  0.55986808  1
  Br  Br27  1  0.78551145  0.21148644  0.05986589  1
  Br  Br28  1  0.75926238  0.87814496  0.22653828  1
  Br  Br29  1  0.75924463  0.88114516  0.72653225  1
  Br  Br30  1  0.45218707  0.90741862  0.89320024  1
  Br  Br31  1  0.45217883  0.54482051  0.39319865  1
  Br  Br32  1  0.78852464  0.57407484  0.05987429  1
  Br  Br33  1  0.45518955  0.90740394  0.39320795  1
  Br  Br34  1  0.09259335  0.54480880  0.89320592  1
  Br  Br35  1  0.09257751  0.54780753  0.39319932  1
