# generated using pymatgen
data_LiI
_symmetry_space_group_name_H-M   'P 1'
_cell_length_a   15.62718807
_cell_length_b   15.62733786
_cell_length_c   4.45576076
_cell_angle_alpha   90.00243073
_cell_angle_beta   89.99865035
_cell_angle_gamma   89.99889745
_symmetry_Int_Tables_number   1
_chemical_formula_structural   LiI
_chemical_formula_sum   'Li16 I16'
_cell_volume   1088.14734040
_cell_formula_units_Z   16
loop_
 _symmetry_equiv_pos_site_id
 _symmetry_equiv_pos_as_xyz
  1  'x, y, z'
loop_
 _atom_site_type_symbol
 _atom_site_label
 _atom_site_symmetry_multiplicity
 _atom_site_fract_x
 _atom_site_fract_y
 _atom_site_fract_z
 _atom_site_occupancy
  Li  Li0  1  0.33091523  0.58580641  0.78880783  1
  Li  Li1  1  0.91419751  0.83090176  0.71122435  1
  Li  Li2  1  0.33092968  0.08579807  0.46119958  1
  Li  Li3  1  0.66908221  0.41419029  0.78881501  1
  Li  Li4  1  0.08581374  0.16911003  0.71121258  1
  Li  Li5  1  0.41417164  0.83088530  0.03880549  1
  Li  Li6  1  0.58580913  0.16909948  0.03879382  1
  Li  Li7  1  0.91418002  0.33090215  0.53882361  1
  Li  Li8  1  0.08582126  0.66908528  0.53882875  1
  Li  Li9  1  0.16908911  0.91421405  0.28874447  1
  Li  Li10  1  0.58582420  0.66911603  0.21116301  1
  Li  Li11  1  0.83091591  0.08579252  0.28874229  1
  Li  Li12  1  0.41417746  0.33090283  0.21116445  1
  Li  Li13  1  0.83091173  0.58579304  0.96124332  1
  Li  Li14  1  0.16908448  0.41420248  0.96124494  1
  Li  Li15  1  0.66907125  0.91419988  0.46119416  1
  I  I16  1  0.40976611  0.65930228  0.27569178  1
  I  I17  1  0.84069780  0.90973936  0.22427503  1
  I  I18  1  0.40974725  0.15929213  0.97429436  1
  I  I19  1  0.59024886  0.34069433  0.27567703  1
  I  I20  1  0.15930874  0.09025626  0.22429281  1
  I  I21  1  0.34066215  0.90974992  0.52567865  1
  I  I22  1  0.65933294  0.09024761  0.52569225  1
  I  I23  1  0.84068917  0.40974635  0.02574568  1
  I  I24  1  0.15929987  0.59026321  0.02574946  1
  I  I25  1  0.09025002  0.84070949  0.77566701  1
  I  I26  1  0.65932834  0.59025796  0.72429455  1
  I  I27  1  0.90976018  0.15928820  0.77567386  1
  I  I28  1  0.34068036  0.40974118  0.72428156  1
  I  I29  1  0.90975590  0.65931588  0.47435218  1
  I  I30  1  0.09023272  0.34068494  0.47434535  1
  I  I31  1  0.59024502  0.84071130  0.97428078  1
