# generated using pymatgen
data_LiBr
_symmetry_space_group_name_H-M   'P 1'
_cell_length_a   5.51209947
_cell_length_b   5.51044401
_cell_length_c   5.49857827
_cell_angle_alpha   89.99996124
_cell_angle_beta   89.99996179
_cell_angle_gamma   89.99999435
_symmetry_Int_Tables_number   1
_chemical_formula_structural   LiBr
_chemical_formula_sum   'Li4 Br4'
_cell_volume   167.01445141
_cell_formula_units_Z   4
loop_
 _symmetry_equiv_pos_site_id
 _symmetry_equiv_pos_as_xyz
  1  'x, y, z'
loop_
 _atom_site_type_symbol
 _atom_site_label
 _atom_site_symmetry_multiplicity
 _atom_site_fract_x
 _atom_site_fract_y
 _atom_site_fract_z
 _atom_site_occupancy
  Li  Li0  1  0.49869642  0.74826629  0.95283225  1
  Li  Li1  1  -0.00130341  0.25173372  0.95283172  1
  Li  Li2  1  0.50130409  0.25173065  0.45283262  1
  Li  Li3  1  0.00130395  0.74826939  0.45283303  1
  Br  Br4  1  0.50013211  0.24996582  0.95343370  1
  Br  Br5  1  0.00013205  0.75003417  0.95343370  1
  Br  Br6  1  0.49986739  0.75003324  0.45343351  1
  Br  Br7  1  -0.00013260  0.24996671  0.45343351  1
