# generated using pymatgen
data_LiBr
_symmetry_space_group_name_H-M   'P 1'
_cell_length_a   10.90572458
_cell_length_b   8.84404444
_cell_length_c   9.12091186
_cell_angle_alpha   90.00014383
_cell_angle_beta   90.00061906
_cell_angle_gamma   90.00004022
_symmetry_Int_Tables_number   1
_chemical_formula_structural   LiBr
_chemical_formula_sum   'Li16 Br16'
_cell_volume   879.71845103
_cell_formula_units_Z   16
loop_
 _symmetry_equiv_pos_site_id
 _symmetry_equiv_pos_as_xyz
  1  'x, y, z'
loop_
 _atom_site_type_symbol
 _atom_site_label
 _atom_site_symmetry_multiplicity
 _atom_site_fract_x
 _atom_site_fract_y
 _atom_site_fract_z
 _atom_site_occupancy
  Li  Li0  1  0.90132050  0.75006651  -0.03702329  1
  Li  Li1  1  0.09868132  0.24993330  -0.03702454  1
  Li  Li2  1  0.34868219  0.00006631  0.21297307  1
  Li  Li3  1  0.59868032  0.24993333  0.46297420  1
  Li  Li4  1  0.84868097  0.00006793  0.71297599  1
  Li  Li5  1  0.15131705  0.49993178  0.21297772  1
  Li  Li6  1  0.40131967  0.75006555  0.46297410  1
  Li  Li7  1  0.84868187  0.50006628  0.21297405  1
  Li  Li8  1  0.15131902  -0.00006517  0.71297390  1
  Li  Li9  1  0.40131763  0.25006653  -0.03702260  1
  Li  Li10  1  0.59868345  0.74993317  -0.03702546  1
  Li  Li11  1  0.34868037  0.50006775  0.71297729  1
  Li  Li12  1  0.65131898  0.49993471  0.71297518  1
  Li  Li13  1  0.65131828  -0.00006711  0.21297618  1
  Li  Li14  1  0.90131721  0.25006661  0.46297546  1
  Li  Li15  1  0.09868214  0.74993248  0.46297364  1
  Br  Br16  1  0.74995931  -0.02977924  0.96285387  1
  Br  Br17  1  0.25004466  0.02978002  0.96285213  1
  Br  Br18  1  0.50004220  0.22021965  0.21285278  1
  Br  Br19  1  0.75004448  0.02977898  0.46285855  1
  Br  Br20  1  0.00004185  0.22022098  0.71285124  1
  Br  Br21  1  -0.00004528  0.27977790  0.21285539  1
  Br  Br22  1  0.24995725  -0.02978013  0.46285335  1
  Br  Br23  1  0.00004363  0.72021923  0.21285516  1
  Br  Br24  1  -0.00004467  0.77978061  0.71285435  1
  Br  Br25  1  0.24995778  0.47022097  0.96285376  1
  Br  Br26  1  0.75004474  0.52978078  0.96285041  1
  Br  Br27  1  0.50004293  0.72022136  0.71285468  1
  Br  Br28  1  0.49995514  0.27978027  0.71285540  1
  Br  Br29  1  0.49995510  0.77977861  0.21285471  1
  Br  Br30  1  0.74995485  0.47022115  0.46285387  1
  Br  Br31  1  0.25004506  0.52977888  0.46285700  1
