# generated using pymatgen
data_KI
_symmetry_space_group_name_H-M   'P 1'
_cell_length_a   8.53593853
_cell_length_b   4.94811533
_cell_length_c   8.87148071
_cell_angle_alpha   89.99944602
_cell_angle_beta   90.00010257
_cell_angle_gamma   90.00068734
_symmetry_Int_Tables_number   1
_chemical_formula_structural   KI
_chemical_formula_sum   'K4 I4'
_cell_volume   374.70302994
_cell_formula_units_Z   4
loop_
 _symmetry_equiv_pos_site_id
 _symmetry_equiv_pos_as_xyz
  1  'x, y, z'
loop_
 _atom_site_type_symbol
 _atom_site_label
 _atom_site_symmetry_multiplicity
 _atom_site_fract_x
 _atom_site_fract_y
 _atom_site_fract_z
 _atom_site_occupancy
  K  K0  1  0.16685067  0.00045503  0.75007503  1
  K  K1  1  0.66685049  0.49954123  0.75007635  1
  K  K2  1  0.83314939  -0.00046383  0.25007595  1
  K  K3  1  0.33314951  0.50046677  0.25007584  1
  I  I4  1  -0.00049937  0.50033177  0.00058217  1
  I  I5  1  0.49949956  -0.00033164  0.00058184  1
  I  I6  1  0.00049965  0.49966158  0.50058222  1
  I  I7  1  0.50050011  0.00033908  0.50058187  1
