# generated using pymatgen
data_LiBr
_symmetry_space_group_name_H-M   'P 1'
_cell_length_a   7.92191295
_cell_length_b   7.92689171
_cell_length_c   10.49733060
_cell_angle_alpha   90.00000152
_cell_angle_beta   89.99999920
_cell_angle_gamma   89.99907139
_symmetry_Int_Tables_number   1
_chemical_formula_structural   LiBr
_chemical_formula_sum   'Li16 Br16'
_cell_volume   659.19190619
_cell_formula_units_Z   16
loop_
 _symmetry_equiv_pos_site_id
 _symmetry_equiv_pos_as_xyz
  1  'x, y, z'
loop_
 _atom_site_type_symbol
 _atom_site_label
 _atom_site_symmetry_multiplicity
 _atom_site_fract_x
 _atom_site_fract_y
 _atom_site_fract_z
 _atom_site_occupancy
  Li  Li0  1  -0.00227856  0.24936721  -0.00075134  1
  Li  Li1  1  0.00227898  0.75064160  -0.00075244  1
  Li  Li2  1  0.25246242  0.49953757  0.24937570  1
  Li  Li3  1  0.50228206  0.75062368  0.49924864  1
  Li  Li4  1  0.75246165  0.49954245  0.74937552  1
  Li  Li5  1  0.24754107  0.00045247  0.24937633  1
  Li  Li6  1  0.49771456  0.24936290  0.49924829  1
  Li  Li7  1  0.75246090  -0.00045367  0.24937585  1
  Li  Li8  1  0.24753924  0.50045114  0.74937652  1
  Li  Li9  1  0.49770640  0.74936488  -0.00075005  1
  Li  Li10  1  0.50229166  0.25064161  -0.00075050  1
  Li  Li11  1  0.25246791  -0.00046285  0.74937556  1
  Li  Li12  1  0.74754020  0.00045982  0.74937564  1
  Li  Li13  1  0.74754230  0.50045840  0.24937505  1
  Li  Li14  1  -0.00228425  0.74936332  0.49924837  1
  Li  Li15  1  0.00228309  0.25063054  0.49924840  1
  Br  Br16  1  0.24994736  0.00005003  -0.00060578  1
  Br  Br17  1  0.75005560  -0.00004479  -0.00060647  1
  Br  Br18  1  0.00004912  0.25005070  0.24931541  1
  Br  Br19  1  0.25005455  -0.00004847  0.49939451  1
  Br  Br20  1  0.50004431  0.25005686  0.74931550  1
  Br  Br21  1  0.49995602  0.24994812  0.24931456  1
  Br  Br22  1  0.74993990  0.00004969  0.49939488  1
  Br  Br23  1  0.50004809  0.75004917  0.24931462  1
  Br  Br24  1  0.49995055  0.74994897  0.74931578  1
  Br  Br25  1  0.74994530  0.50005299  -0.00060545  1
  Br  Br26  1  0.25005125  0.49995090  -0.00060467  1
  Br  Br27  1  0.00004698  0.75005252  0.74931420  1
  Br  Br28  1  -0.00004961  0.24994987  0.74931445  1
  Br  Br29  1  -0.00004609  0.74995186  0.24931483  1
  Br  Br30  1  0.24994319  0.50004778  0.49939351  1
  Br  Br31  1  0.75005384  0.49995272  0.49939365  1
