# generated using pymatgen
data_LiBr
_symmetry_space_group_name_H-M   'P 1'
_cell_length_a   6.74421281
_cell_length_b   3.89208171
_cell_length_c   6.74238181
_cell_angle_alpha   90.00009014
_cell_angle_beta   109.70010912
_cell_angle_gamma   90.00001369
_symmetry_Int_Tables_number   1
_chemical_formula_structural   LiBr
_chemical_formula_sum   'Li4 Br4'
_cell_volume   166.62225139
_cell_formula_units_Z   4
loop_
 _symmetry_equiv_pos_site_id
 _symmetry_equiv_pos_as_xyz
  1  'x, y, z'
loop_
 _atom_site_type_symbol
 _atom_site_label
 _atom_site_symmetry_multiplicity
 _atom_site_fract_x
 _atom_site_fract_y
 _atom_site_fract_z
 _atom_site_occupancy
  Li  Li0  1  0.28376282  0.25148653  0.12153271  1
  Li  Li1  1  0.78376166  0.75147859  0.12153492  1
  Li  Li2  1  0.28376365  0.74851324  0.62153462  1
  Li  Li3  1  0.78376264  0.24851891  0.62153585  1
  Br  Br4  1  0.53112620  0.75108273  0.37135182  1
  Br  Br5  1  0.03112628  0.25108292  0.37135182  1
  Br  Br6  1  0.53112602  0.24891857  0.87135164  1
  Br  Br7  1  0.03112605  0.74891850  0.87135163  1
