# generated using pymatgen
data_LiBr
_symmetry_space_group_name_H-M   'P 1'
_cell_length_a   3.95508652
_cell_length_b   3.95301695
_cell_length_c   13.05966069
_cell_angle_alpha   90.00009408
_cell_angle_beta   90.00000708
_cell_angle_gamma   89.94048213
_symmetry_Int_Tables_number   1
_chemical_formula_structural   LiBr
_chemical_formula_sum   'Li4 Br4'
_cell_volume   204.18146871
_cell_formula_units_Z   4
loop_
 _symmetry_equiv_pos_site_id
 _symmetry_equiv_pos_as_xyz
  1  'x, y, z'
loop_
 _atom_site_type_symbol
 _atom_site_label
 _atom_site_symmetry_multiplicity
 _atom_site_fract_x
 _atom_site_fract_y
 _atom_site_fract_z
 _atom_site_occupancy
  Li  Li0  1  0.00951278  0.99002144  0.78640490  1
  Li  Li1  1  0.99016143  -0.00994119  0.03629796  1
  Li  Li2  1  -0.00951462  0.00997614  0.28640632  1
  Li  Li3  1  0.00983996  0.00994453  0.53629835  1
  Br  Br4  1  0.50908896  -0.00060613  0.66107523  1
  Br  Br5  1  -0.00063752  0.49062105  0.91110167  1
  Br  Br6  1  0.49091099  0.00060364  0.16107403  1
  Br  Br7  1  0.00063802  0.50938052  0.41110142  1
