# generated using pymatgen
data_LiBr
_symmetry_space_group_name_H-M   'P 1'
_cell_length_a   7.77396652
_cell_length_b   5.48421174
_cell_length_c   3.90371661
_cell_angle_alpha   90.00000718
_cell_angle_beta   90.00006392
_cell_angle_gamma   90.00000025
_symmetry_Int_Tables_number   1
_chemical_formula_structural   LiBr
_chemical_formula_sum   'Li4 Br4'
_cell_volume   166.43136025
_cell_formula_units_Z   4
loop_
 _symmetry_equiv_pos_site_id
 _symmetry_equiv_pos_as_xyz
  1  'x, y, z'
loop_
 _atom_site_type_symbol
 _atom_site_label
 _atom_site_symmetry_multiplicity
 _atom_site_fract_x
 _atom_site_fract_y
 _atom_site_fract_z
 _atom_site_occupancy
  Li  Li0  1  0.37574210  0.24934064  0.49958731  1
  Li  Li1  1  0.62425758  0.74934068  0.00042303  1
  Li  Li2  1  0.12425728  0.75065899  0.99959109  1
  Li  Li3  1  0.87574233  0.25065901  0.50039860  1
  Br  Br4  1  0.87511210  0.75015783  0.49815903  1
  Br  Br5  1  0.12488824  0.25015785  0.00183930  1
  Br  Br6  1  0.62488820  0.24984252  -0.00184055  1
  Br  Br7  1  0.37511216  0.74984250  0.50184220  1
