# generated using pymatgen
data_KI
_symmetry_space_group_name_H-M   'P 1'
_cell_length_a   10.15395344
_cell_length_b   7.18918350
_cell_length_c   5.08354301
_cell_angle_alpha   89.99999973
_cell_angle_beta   90.00000020
_cell_angle_gamma   90.00000011
_symmetry_Int_Tables_number   1
_chemical_formula_structural   KI
_chemical_formula_sum   'K4 I4'
_cell_volume   371.09169855
_cell_formula_units_Z   4
loop_
 _symmetry_equiv_pos_site_id
 _symmetry_equiv_pos_as_xyz
  1  'x, y, z'
loop_
 _atom_site_type_symbol
 _atom_site_label
 _atom_site_symmetry_multiplicity
 _atom_site_fract_x
 _atom_site_fract_y
 _atom_site_fract_z
 _atom_site_occupancy
  K  K0  1  0.62475447  0.75063020  0.95794951  1
  K  K1  1  0.12475446  0.74936980  0.95794939  1
  K  K2  1  0.37524554  0.24936980  0.45794870  1
  K  K3  1  0.87524554  0.25063020  0.45794883  1
  I  I4  1  0.62528208  0.24962335  0.95804021  1
  I  I5  1  0.12528207  0.25037665  0.95804074  1
  I  I6  1  0.37471793  0.75037665  0.45804143  1
  I  I7  1  0.87471793  0.74962335  0.45804090  1
