# generated using pymatgen
data_LiI
_symmetry_space_group_name_H-M   'P 1'
_cell_length_a   13.86959734
_cell_length_b   13.86959277
_cell_length_c   5.52651948
_cell_angle_alpha   89.99975218
_cell_angle_beta   90.00022976
_cell_angle_gamma   90.00005683
_symmetry_Int_Tables_number   1
_chemical_formula_structural   LiI
_chemical_formula_sum   'Li16 I16'
_cell_volume   1063.11260692
_cell_formula_units_Z   16
loop_
 _symmetry_equiv_pos_site_id
 _symmetry_equiv_pos_as_xyz
  1  'x, y, z'
loop_
 _atom_site_type_symbol
 _atom_site_label
 _atom_site_symmetry_multiplicity
 _atom_site_fract_x
 _atom_site_fract_y
 _atom_site_fract_z
 _atom_site_occupancy
  Li  Li0  1  0.09564749  0.92943743  0.24660842  1
  Li  Li1  1  0.57056248  0.59564746  0.25339185  1
  Li  Li2  1  0.09564692  0.42943675  0.00339665  1
  Li  Li3  1  0.90435379  0.07056309  0.24660507  1
  Li  Li4  1  0.42943753  0.40435293  0.25339434  1
  Li  Li5  1  0.07056125  0.59564610  0.49660673  1
  Li  Li6  1  0.92943642  0.40435171  0.49661044  1
  Li  Li7  1  0.57056217  0.09564770  -0.00339547  1
  Li  Li8  1  0.42943667  0.90435248  -0.00339460  1
  Li  Li9  1  0.40435224  0.57056228  0.74660559  1
  Li  Li10  1  0.92943859  0.90435332  0.75339446  1
  Li  Li11  1  0.59564721  0.42943764  0.74660728  1
  Li  Li12  1  0.07056480  0.09564781  0.75339247  1
  Li  Li13  1  0.59564677  0.92943797  0.50339260  1
  Li  Li14  1  0.40435339  0.07056293  0.50339059  1
  Li  Li15  1  0.90435221  0.57056250  0.00339400  1
  I  I16  1  0.40443025  0.36862080  0.75228717  1
  I  I17  1  0.13137970  0.90442989  0.74771666  1
  I  I18  1  0.40442950  0.86862129  0.49771238  1
  I  I19  1  0.59556941  0.63137928  0.75228452  1
  I  I20  1  0.86862284  0.09557065  0.74771096  1
  I  I21  1  0.63137838  0.90443048  0.00228573  1
  I  I22  1  0.36862108  0.09556992  0.00228279  1
  I  I23  1  0.13137829  0.40442913  0.50229071  1
  I  I24  1  0.86862001  0.59556914  0.50228566  1
  I  I25  1  0.09557153  0.13137902  0.25228566  1
  I  I26  1  0.36862068  0.59557003  0.24771175  1
  I  I27  1  0.90443026  0.86862135  0.25228662  1
  I  I28  1  0.63137892  0.40443039  0.24771514  1
  I  I29  1  0.90442937  0.36862060  -0.00228257  1
  I  I30  1  0.09556930  0.63137844  -0.00228561  1
  I  I31  1  0.59557055  0.13137948  0.49771202  1
