# generated using pymatgen
data_LiI
_symmetry_space_group_name_H-M   'P 1'
_cell_length_a   7.94499091
_cell_length_b   4.66843896
_cell_length_c   7.56435277
_cell_angle_alpha   90.00025759
_cell_angle_beta   89.99754741
_cell_angle_gamma   89.99990843
_symmetry_Int_Tables_number   1
_chemical_formula_structural   LiI
_chemical_formula_sum   'Li4 I4'
_cell_volume   280.56717760
_cell_formula_units_Z   4
loop_
 _symmetry_equiv_pos_site_id
 _symmetry_equiv_pos_as_xyz
  1  'x, y, z'
loop_
 _atom_site_type_symbol
 _atom_site_label
 _atom_site_symmetry_multiplicity
 _atom_site_fract_x
 _atom_site_fract_y
 _atom_site_fract_z
 _atom_site_occupancy
  Li  Li0  1  0.40232333  -0.00369683  0.89406146  1
  Li  Li1  1  0.59767752  0.49630137  0.60594283  1
  Li  Li2  1  0.09769111  0.00370020  0.39402452  1
  Li  Li3  1  0.90231010  0.50369687  0.10597171  1
  I  I4  1  0.42380976  -0.00258322  0.52279424  1
  I  I5  1  0.57618970  0.49741865  0.97720988  1
  I  I6  1  0.07617872  0.00257958  0.02278327  1
  I  I7  1  0.92381977  0.50258338  0.47721208  1
