# generated using pymatgen
data_NaI
_symmetry_space_group_name_H-M   'P 1'
_cell_length_a   4.60945752
_cell_length_b   13.05501879
_cell_length_c   6.52183802
_cell_angle_alpha   90.00000284
_cell_angle_beta   134.91011541
_cell_angle_gamma   89.99999788
_symmetry_Int_Tables_number   1
_chemical_formula_structural   NaI
_chemical_formula_sum   'Na4 I4'
_cell_volume   277.94737323
_cell_formula_units_Z   4
loop_
 _symmetry_equiv_pos_site_id
 _symmetry_equiv_pos_as_xyz
  1  'x, y, z'
loop_
 _atom_site_type_symbol
 _atom_site_label
 _atom_site_symmetry_multiplicity
 _atom_site_fract_x
 _atom_site_fract_y
 _atom_site_fract_z
 _atom_site_occupancy
  Na  Na0  1  0.50011320  0.37469888  0.25033254  1
  Na  Na1  1  0.49988827  0.87469890  0.24966713  1
  Na  Na2  1  0.49988683  0.62530113  0.74966743  1
  Na  Na3  1  0.50011177  0.12530111  0.75033297  1
  I  I4  1  0.49959156  0.12480726  0.25019587  1
  I  I5  1  0.50041074  0.62480730  0.24979509  1
  I  I6  1  0.50040821  0.87519274  0.74980407  1
  I  I7  1  0.49958940  0.37519269  0.75020489  1
