# generated using pymatgen
data_NaI
_symmetry_space_group_name_H-M   'P 1'
_cell_length_a   7.87839444
_cell_length_b   7.74853134
_cell_length_c   4.56597640
_cell_angle_alpha   90.00000778
_cell_angle_beta   90.00003488
_cell_angle_gamma   90.00001798
_symmetry_Int_Tables_number   1
_chemical_formula_structural   NaI
_chemical_formula_sum   'Na4 I4'
_cell_volume   278.73453252
_cell_formula_units_Z   4
loop_
 _symmetry_equiv_pos_site_id
 _symmetry_equiv_pos_as_xyz
  1  'x, y, z'
loop_
 _atom_site_type_symbol
 _atom_site_label
 _atom_site_symmetry_multiplicity
 _atom_site_fract_x
 _atom_site_fract_y
 _atom_site_fract_z
 _atom_site_occupancy
  Na  Na0  1  -0.00108814  0.50055171  0.25029763  1
  Na  Na1  1  0.00108824  0.00055149  0.24969583  1
  Na  Na2  1  0.50108834  0.49944828  0.75027026  1
  Na  Na3  1  0.49891152  0.99944848  0.74973640  1
  I  I4  1  0.83310892  0.75074086  0.75052190  1
  I  I5  1  0.16689106  0.25074086  0.74947688  1
  I  I6  1  0.66689070  0.24925915  0.25052198  1
  I  I7  1  0.33310936  0.74925917  0.24947913  1
