# generated using pymatgen
data_KI
_symmetry_space_group_name_H-M   'P 1'
_cell_length_a   8.52931626
_cell_length_b   4.96108855
_cell_length_c   8.87005943
_cell_angle_alpha   89.99999852
_cell_angle_beta   90.00004138
_cell_angle_gamma   89.99998697
_symmetry_Int_Tables_number   1
_chemical_formula_structural   KI
_chemical_formula_sum   'K4 I4'
_cell_volume   375.33384355
_cell_formula_units_Z   4
loop_
 _symmetry_equiv_pos_site_id
 _symmetry_equiv_pos_as_xyz
  1  'x, y, z'
loop_
 _atom_site_type_symbol
 _atom_site_label
 _atom_site_symmetry_multiplicity
 _atom_site_fract_x
 _atom_site_fract_y
 _atom_site_fract_z
 _atom_site_occupancy
  K  K0  1  0.41553144  0.75305403  0.43011066  1
  K  K1  1  0.91553149  0.24694586  0.43011061  1
  K  K2  1  0.58446862  0.24694628  0.93011020  1
  K  K3  1  0.08446867  0.75305370  0.93011027  1
  I  I4  1  0.75132462  0.74700882  0.68001697  1
  I  I5  1  0.25132465  0.25299125  0.68001691  1
  I  I6  1  0.24867531  0.25299140  0.18001694  1
  I  I7  1  0.74867521  0.74700865  0.18001700  1
