# generated using pymatgen
data_LiBr
_symmetry_space_group_name_H-M   'P 1'
_cell_length_a   10.41715900
_cell_length_b   10.41715830
_cell_length_c   12.11481882
_cell_angle_alpha   90.00172827
_cell_angle_beta   89.99828026
_cell_angle_gamma   120.00353428
_symmetry_Int_Tables_number   1
_chemical_formula_structural   LiBr
_chemical_formula_sum   'Li18 Br18'
_cell_volume   1138.49373171
_cell_formula_units_Z   18
loop_
 _symmetry_equiv_pos_site_id
 _symmetry_equiv_pos_as_xyz
  1  'x, y, z'
loop_
 _atom_site_type_symbol
 _atom_site_label
 _atom_site_symmetry_multiplicity
 _atom_site_fract_x
 _atom_site_fract_y
 _atom_site_fract_z
 _atom_site_occupancy
  Li  Li0  1  0.58211372  0.91601556  0.20140582  1
  Li  Li1  1  0.58211928  0.66609935  0.70140528  1
  Li  Li2  1  0.41730472  0.08454330  0.36806587  1
  Li  Li3  1  0.66724024  0.58269367  0.36806409  1
  Li  Li4  1  0.75064137  0.99942354  0.53472858  1
  Li  Li5  1  0.08398253  0.66609805  0.20140633  1
  Li  Li6  1  0.66723614  0.08454418  0.86806846  1
  Li  Li7  1  0.41730603  0.33275925  0.86806388  1
  Li  Li8  1  0.33390070  0.41788116  0.20140524  1
  Li  Li9  1  0.33390187  0.91601790  0.70140613  1
  Li  Li10  1  0.91545614  0.58269498  0.86806579  1
  Li  Li11  1  0.91545610  0.33276423  0.36806834  1
  Li  Li12  1  0.00057622  0.75122034  0.53473091  1
  Li  Li13  1  0.00057674  0.24935870  0.03472866  1
  Li  Li14  1  0.08398411  0.41788603  0.70140549  1
  Li  Li15  1  0.75064332  0.75121893  0.03472943  1
  Li  Li16  1  0.24878158  0.24935714  0.53472930  1
  Li  Li17  1  0.24877972  0.99942358  0.03473123  1
  Br  Br18  1  0.75693899  0.00050574  0.03494973  1
  Br  Br19  1  0.75694822  0.75643957  0.53495381  1
  Br  Br20  1  0.33282153  0.90972260  0.20163046  1
  Br  Br21  1  0.57690517  0.66718650  0.20164289  1
  Br  Br22  1  0.66616137  0.08976496  0.36828959  1
  Br  Br23  1  0.99948470  0.75642736  0.03496250  1
  Br  Br24  1  0.57689405  0.90971137  0.70163771  1
  Br  Br25  1  0.33281342  0.42309452  0.70164286  1
  Br  Br26  1  0.24356031  0.24305178  0.03495366  1
  Br  Br27  1  0.24357267  0.00051548  0.53496264  1
  Br  Br28  1  0.09027699  0.66717820  0.70162993  1
  Br  Br29  1  0.09028882  0.42310587  0.20163810  1
  Br  Br30  1  -0.08977066  0.57639594  0.36828589  1
  Br  Br31  1  -0.08976505  0.33383885  0.86828974  1
  Br  Br32  1  0.99949462  0.24306125  0.53494937  1
  Br  Br33  1  0.66617109  0.57640113  0.86827835  1
  Br  Br34  1  0.42359885  0.33382842  0.36827784  1
  Br  Br35  1  0.42360439  0.08977055  0.86828636  1
