# generated using pymatgen
data_KI
_symmetry_space_group_name_H-M   'P 1'
_cell_length_a   8.61292352
_cell_length_b   4.96684556
_cell_length_c   8.69967216
_cell_angle_alpha   90.00000087
_cell_angle_beta   89.99991236
_cell_angle_gamma   90.00001100
_symmetry_Int_Tables_number   1
_chemical_formula_structural   KI
_chemical_formula_sum   'K4 I4'
_cell_volume   372.16380566
_cell_formula_units_Z   4
loop_
 _symmetry_equiv_pos_site_id
 _symmetry_equiv_pos_as_xyz
  1  'x, y, z'
loop_
 _atom_site_type_symbol
 _atom_site_label
 _atom_site_symmetry_multiplicity
 _atom_site_fract_x
 _atom_site_fract_y
 _atom_site_fract_z
 _atom_site_occupancy
  K  K0  1  0.24995239  0.25285655  -0.00712589  1
  K  K1  1  0.74995258  0.74714501  -0.00712617  1
  K  K2  1  0.75005040  0.74714138  0.49287253  1
  K  K3  1  0.25005037  0.25285739  0.49287223  1
  I  I4  1  0.58372756  0.24651434  0.74352244  1
  I  I5  1  0.08372777  0.75348533  0.74352229  1
  I  I6  1  0.41626958  0.75348589  0.24352128  1
  I  I7  1  0.91626933  0.24651411  0.24352117  1
