# generated using pymatgen
data_LiBr
_symmetry_space_group_name_H-M   'P 1'
_cell_length_a   7.79671193
_cell_length_b   7.79669600
_cell_length_c   10.99306096
_cell_angle_alpha   89.99997242
_cell_angle_beta   89.99998716
_cell_angle_gamma   90.00003152
_symmetry_Int_Tables_number   1
_chemical_formula_structural   LiBr
_chemical_formula_sum   'Li16 Br16'
_cell_volume   668.25270577
_cell_formula_units_Z   16
loop_
 _symmetry_equiv_pos_site_id
 _symmetry_equiv_pos_as_xyz
  1  'x, y, z'
loop_
 _atom_site_type_symbol
 _atom_site_label
 _atom_site_symmetry_multiplicity
 _atom_site_fract_x
 _atom_site_fract_y
 _atom_site_fract_z
 _atom_site_occupancy
  Li  Li0  1  0.49956219  0.24845301  0.62593312  1
  Li  Li1  1  0.74845350  0.49956190  0.87593320  1
  Li  Li2  1  0.50043974  0.24845463  0.12593326  1
  Li  Li3  1  0.50043921  0.75154636  0.62593323  1
  Li  Li4  1  0.25154537  0.50043856  0.87593337  1
  Li  Li5  1  0.75154606  -0.00043896  0.87593312  1
  Li  Li6  1  0.24845320  0.00043935  0.87593287  1
  Li  Li7  1  0.25154600  0.49956103  0.37593267  1
  Li  Li8  1  0.74845351  0.50043915  0.37593283  1
  Li  Li9  1  0.00043983  0.25154612  0.12593325  1
  Li  Li10  1  0.75154563  0.00043924  0.37593342  1
  Li  Li11  1  -0.00043841  0.74845312  0.12593295  1
  Li  Li12  1  0.24845345  -0.00043809  0.37593314  1
  Li  Li13  1  0.00043961  0.74845437  0.62593329  1
  Li  Li14  1  -0.00043923  0.25154528  0.62593349  1
  Li  Li15  1  0.49956059  0.75154536  0.12593344  1
  Br  Br16  1  0.25017528  0.49982552  0.62584122  1
  Br  Br17  1  -0.00017463  0.25017484  0.87584136  1
  Br  Br18  1  0.74982490  0.49982521  0.12584096  1
  Br  Br19  1  0.74982502  0.50017481  0.62584110  1
  Br  Br20  1  0.00017467  0.74982511  0.87584108  1
  Br  Br21  1  0.50017419  0.75017420  0.87584118  1
  Br  Br22  1  0.49982535  0.24982569  0.87584117  1
  Br  Br23  1  0.00017433  0.25017451  0.37584130  1
  Br  Br24  1  -0.00017467  0.74982558  0.37584127  1
  Br  Br25  1  0.24982505  0.00017472  0.12584120  1
  Br  Br26  1  0.50017477  0.24982541  0.37584122  1
  Br  Br27  1  0.75017512  -0.00017477  0.12584134  1
  Br  Br28  1  0.49982492  0.75017502  0.37584149  1
  Br  Br29  1  0.24982508  -0.00017517  0.62584088  1
  Br  Br30  1  0.75017501  0.00017425  0.62584098  1
  Br  Br31  1  0.25017535  0.50017464  0.12584105  1
