# generated using pymatgen
data_NaI
_symmetry_space_group_name_H-M   'P 1'
_cell_length_a   8.78402316
_cell_length_b   5.19835095
_cell_length_c   8.01303160
_cell_angle_alpha   90.00954602
_cell_angle_beta   89.99824275
_cell_angle_gamma   89.99777073
_symmetry_Int_Tables_number   1
_chemical_formula_structural   NaI
_chemical_formula_sum   'Na4 I4'
_cell_volume   365.89453000
_cell_formula_units_Z   4
loop_
 _symmetry_equiv_pos_site_id
 _symmetry_equiv_pos_as_xyz
  1  'x, y, z'
loop_
 _atom_site_type_symbol
 _atom_site_label
 _atom_site_symmetry_multiplicity
 _atom_site_fract_x
 _atom_site_fract_y
 _atom_site_fract_z
 _atom_site_occupancy
  Na  Na0  1  0.57531698  0.24652002  0.72435446  1
  Na  Na1  1  0.07531827  0.75350290  0.72435594  1
  Na  Na2  1  0.42468792  0.75350121  0.22435303  1
  Na  Na3  1  0.92469037  0.24648522  0.22435182  1
  I  I4  1  0.91330658  0.25267093  0.83810238  1
  I  I5  1  0.41330708  0.74728138  0.83810407  1
  I  I6  1  0.08668586  0.74730433  0.33811485  1
  I  I7  1  0.58668693  0.25273400  0.33811097  1
