# generated using pymatgen
data_LiI
_symmetry_space_group_name_H-M   'P 1'
_cell_length_a   4.85575342
_cell_length_b   13.01325077
_cell_length_c   4.75654566
_cell_angle_alpha   89.99951604
_cell_angle_beta   89.99935905
_cell_angle_gamma   89.99968620
_symmetry_Int_Tables_number   1
_chemical_formula_structural   LiI
_chemical_formula_sum   'Li4 I4'
_cell_volume   300.56201496
_cell_formula_units_Z   4
loop_
 _symmetry_equiv_pos_site_id
 _symmetry_equiv_pos_as_xyz
  1  'x, y, z'
loop_
 _atom_site_type_symbol
 _atom_site_label
 _atom_site_symmetry_multiplicity
 _atom_site_fract_x
 _atom_site_fract_y
 _atom_site_fract_z
 _atom_site_occupancy
  Li  Li0  1  0.25007657  0.50246254  0.52406917  1
  Li  Li1  1  0.75007803  -0.00246255  0.52407139  1
  Li  Li2  1  0.74992345  0.49753739  0.02407092  1
  Li  Li3  1  0.24992195  0.00246259  0.02406932  1
  I  I4  1  0.25044006  0.89193195  0.52380715  1
  I  I5  1  0.75043999  0.60806810  0.52380204  1
  I  I6  1  0.74955994  0.10806811  0.02380239  1
  I  I7  1  0.24956001  0.39193187  0.02380691  1
