# generated using pymatgen
data_LiI
_symmetry_space_group_name_H-M   'P 1'
_cell_length_a   7.32479918
_cell_length_b   4.23886414
_cell_length_c   6.96612743
_cell_angle_alpha   89.99999614
_cell_angle_beta   90.00028456
_cell_angle_gamma   89.99996028
_symmetry_Int_Tables_number   1
_chemical_formula_structural   LiI
_chemical_formula_sum   'Li4 I4'
_cell_volume   216.29009624
_cell_formula_units_Z   4
loop_
 _symmetry_equiv_pos_site_id
 _symmetry_equiv_pos_as_xyz
  1  'x, y, z'
loop_
 _atom_site_type_symbol
 _atom_site_label
 _atom_site_symmetry_multiplicity
 _atom_site_fract_x
 _atom_site_fract_y
 _atom_site_fract_z
 _atom_site_occupancy
  Li  Li0  1  0.49915647  0.00018453  0.20697690  1
  Li  Li1  1  -0.00084417  0.49981511  0.20697737  1
  Li  Li2  1  0.50084149  -0.00018647  0.70698199  1
  Li  Li3  1  0.00084128  0.50018672  0.70698196  1
  I  I4  1  0.83286054  0.00016592  0.45777644  1
  I  I5  1  0.33286029  0.49983408  0.45777645  1
  I  I6  1  0.16714217  -0.00016523  0.95777707  1
  I  I7  1  0.66714193  0.50016534  0.95777699  1
