# generated using pymatgen
data_LiBr
_symmetry_space_group_name_H-M   'P 1'
_cell_length_a   3.94982542
_cell_length_b   3.95001376
_cell_length_c   9.07568708
_cell_angle_alpha   89.99663627
_cell_angle_beta   90.01044663
_cell_angle_gamma   119.99879055
_symmetry_Int_Tables_number   1
_chemical_formula_structural   LiBr
_chemical_formula_sum   'Li3 Br3'
_cell_volume   122.62864766
_cell_formula_units_Z   3
loop_
 _symmetry_equiv_pos_site_id
 _symmetry_equiv_pos_as_xyz
  1  'x, y, z'
loop_
 _atom_site_type_symbol
 _atom_site_label
 _atom_site_symmetry_multiplicity
 _atom_site_fract_x
 _atom_site_fract_y
 _atom_site_fract_z
 _atom_site_occupancy
  Li  Li0  1  0.00004914  0.66864352  0.37526727  1
  Li  Li1  1  0.33142285  0.33139219  0.70899063  1
  Li  Li2  1  0.66855146  0.00000826  0.04178117  1
  Br  Br3  1  0.00099977  0.66632757  0.87539887  1
  Br  Br4  1  0.33367901  0.33472447  0.20867460  1
  Br  Br5  1  0.66529775  -0.00109599  0.54235898  1
