# generated using pymatgen
data_LiI
_symmetry_space_group_name_H-M   'P 1'
_cell_length_a   8.00764161
_cell_length_b   4.74078999
_cell_length_c   14.41177539
_cell_angle_alpha   89.99907338
_cell_angle_beta   89.99878182
_cell_angle_gamma   89.99963874
_symmetry_Int_Tables_number   1
_chemical_formula_structural   LiI
_chemical_formula_sum   'Li8 I8'
_cell_volume   547.10770351
_cell_formula_units_Z   8
loop_
 _symmetry_equiv_pos_site_id
 _symmetry_equiv_pos_as_xyz
  1  'x, y, z'
loop_
 _atom_site_type_symbol
 _atom_site_label
 _atom_site_symmetry_multiplicity
 _atom_site_fract_x
 _atom_site_fract_y
 _atom_site_fract_z
 _atom_site_occupancy
  Li  Li0  1  0.33168845  0.75986322  0.17401970  1
  Li  Li1  1  0.83171483  0.74011082  0.82597936  1
  Li  Li2  1  0.16832560  0.25986684  0.32599110  1
  Li  Li3  1  0.33172590  0.24010957  0.82597472  1
  Li  Li4  1  0.66831431  0.75987729  0.32598861  1
  Li  Li5  1  0.83168382  0.25987265  0.17401883  1
  Li  Li6  1  0.66828473  0.24010602  0.67401994  1
  Li  Li7  1  0.16829195  0.74010284  0.67401979  1
  I  I8  1  0.33113612  0.24104536  0.63046071  1
  I  I9  1  0.83130475  0.25898960  0.36958771  1
  I  I10  1  0.16886710  0.74102798  0.86953555  1
  I  I11  1  0.33130587  0.75898060  0.36958545  1
  I  I12  1  0.66887366  0.24103211  0.86953729  1
  I  I13  1  0.83113017  0.74103913  0.63046108  1
  I  I14  1  0.66867567  0.75899107  0.13041083  1
  I  I15  1  0.16867708  0.25898489  0.13040934  1
