# generated using pymatgen
data_LiI
_symmetry_space_group_name_H-M   'P 1'
_cell_length_a   6.93872628
_cell_length_b   4.25718149
_cell_length_c   7.30367408
_cell_angle_alpha   90.00003043
_cell_angle_beta   90.00002024
_cell_angle_gamma   90.00009753
_symmetry_Int_Tables_number   1
_chemical_formula_structural   LiI
_chemical_formula_sum   'Li4 I4'
_cell_volume   215.74627510
_cell_formula_units_Z   4
loop_
 _symmetry_equiv_pos_site_id
 _symmetry_equiv_pos_as_xyz
  1  'x, y, z'
loop_
 _atom_site_type_symbol
 _atom_site_label
 _atom_site_symmetry_multiplicity
 _atom_site_fract_x
 _atom_site_fract_y
 _atom_site_fract_z
 _atom_site_occupancy
  Li  Li0  1  0.50106908  0.75129932  0.50119086  1
  Li  Li1  1  0.49892928  0.25130186  -0.00119104  1
  Li  Li2  1  0.99892993  0.24869890  0.00119211  1
  Li  Li3  1  0.00106843  0.74869997  0.49880816  1
  I  I4  1  0.25022009  0.25084545  0.33245441  1
  I  I5  1  0.74978151  0.75084548  0.16754547  1
  I  I6  1  0.24978157  0.74915484  0.83245482  1
  I  I7  1  0.75022011  0.24915418  0.66754520  1
