# generated using pymatgen
data_LiBr
_symmetry_space_group_name_H-M   'P 1'
_cell_length_a   10.09684271
_cell_length_b   10.90680818
_cell_length_c   8.76147811
_cell_angle_alpha   90.00007424
_cell_angle_beta   90.00000301
_cell_angle_gamma   90.15068880
_symmetry_Int_Tables_number   1
_chemical_formula_structural   LiBr
_chemical_formula_sum   'Li16 Br16'
_cell_volume   964.84854006
_cell_formula_units_Z   16
loop_
 _symmetry_equiv_pos_site_id
 _symmetry_equiv_pos_as_xyz
  1  'x, y, z'
loop_
 _atom_site_type_symbol
 _atom_site_label
 _atom_site_symmetry_multiplicity
 _atom_site_fract_x
 _atom_site_fract_y
 _atom_site_fract_z
 _atom_site_occupancy
  Li  Li0  1  0.24982087  0.60232855  0.44378140  1
  Li  Li1  1  0.75017765  0.39767093  0.44377944  1
  Li  Li2  1  -0.00008567  0.85232688  0.69320158  1
  Li  Li3  1  0.25017981  0.39767500  0.94378142  1
  Li  Li4  1  0.49991267  0.85232211  0.19319710  1
  Li  Li5  1  0.50008691  0.64767256  0.69319704  1
  Li  Li6  1  0.74982134  0.60232430  0.94377955  1
  Li  Li7  1  0.49991311  0.35232374  0.69319722  1
  Li  Li8  1  0.50008751  0.14767303  0.19319695  1
  Li  Li9  1  0.74982053  0.10232380  0.44378047  1
  Li  Li10  1  0.25017994  0.89767549  0.44378068  1
  Li  Li11  1  -0.00008649  0.35232781  0.19320111  1
  Li  Li12  1  0.00008504  0.64767648  0.19320140  1
  Li  Li13  1  0.00008542  0.14767832  0.69320103  1
  Li  Li14  1  0.24982195  0.10232806  0.94378092  1
  Li  Li15  1  0.75017919  0.89767167  0.94378065  1
  Br  Br16  1  0.94756432  0.25000350  0.44346391  1
  Br  Br17  1  0.05243525  0.74999815  0.44346612  1
  Br  Br18  1  0.30244013  0.49926005  0.69311619  1
  Br  Br19  1  0.55243495  0.74999287  -0.05653713  1
  Br  Br20  1  0.80243894  0.49926254  0.19311924  1
  Br  Br21  1  0.19756011  0.00074306  0.69311636  1
  Br  Br22  1  0.44756651  0.25000720  -0.05653346  1
  Br  Br23  1  0.80243964  -0.00073684  0.69312024  1
  Br  Br24  1  0.19755923  0.50074204  0.19311746  1
  Br  Br25  1  0.44756581  0.75000646  0.44346584  1
  Br  Br26  1  0.55243403  0.24999145  0.44346411  1
  Br  Br27  1  0.30244046  -0.00074019  0.19311533  1
  Br  Br28  1  0.69755972  0.00073441  0.19311860  1
  Br  Br29  1  0.69755991  0.50073574  0.69311683  1
  Br  Br30  1  0.94756555  0.75000429  -0.05653509  1
  Br  Br31  1  0.05243570  0.24999653  -0.05653298  1
