# generated using pymatgen
data_NaBr
_symmetry_space_group_name_H-M   'P 1'
_cell_length_a   6.02842185
_cell_length_b   6.03314905
_cell_length_c   6.04141849
_cell_angle_alpha   90.00000141
_cell_angle_beta   89.99999985
_cell_angle_gamma   89.99999537
_symmetry_Int_Tables_number   1
_chemical_formula_structural   NaBr
_chemical_formula_sum   'Na4 Br4'
_cell_volume   219.72861095
_cell_formula_units_Z   4
loop_
 _symmetry_equiv_pos_site_id
 _symmetry_equiv_pos_as_xyz
  1  'x, y, z'
loop_
 _atom_site_type_symbol
 _atom_site_label
 _atom_site_symmetry_multiplicity
 _atom_site_fract_x
 _atom_site_fract_y
 _atom_site_fract_z
 _atom_site_occupancy
  Na  Na0  1  0.75171861  0.49750092  0.96926125  1
  Na  Na1  1  0.25171866  0.00249928  0.96925987  1
  Na  Na2  1  0.24828130  0.50249904  0.46926401  1
  Na  Na3  1  0.74828145  0.99750074  0.46926524  1
  Br  Br4  1  0.75142014  -0.00153801  0.96915138  1
  Br  Br5  1  0.25142008  0.50153815  0.96915173  1
  Br  Br6  1  0.24857993  0.00153801  0.46915231  1
  Br  Br7  1  0.74857984  0.49846186  0.46915205  1
