# generated using pymatgen
data_LiI
_symmetry_space_group_name_H-M   'P 1'
_cell_length_a   8.60293854
_cell_length_b   8.60299904
_cell_length_c   11.66369153
_cell_angle_alpha   89.99764118
_cell_angle_beta   89.99707937
_cell_angle_gamma   90.00446886
_symmetry_Int_Tables_number   1
_chemical_formula_structural   LiI
_chemical_formula_sum   'Li16 I16'
_cell_volume   863.24230830
_cell_formula_units_Z   16
loop_
 _symmetry_equiv_pos_site_id
 _symmetry_equiv_pos_as_xyz
  1  'x, y, z'
loop_
 _atom_site_type_symbol
 _atom_site_label
 _atom_site_symmetry_multiplicity
 _atom_site_fract_x
 _atom_site_fract_y
 _atom_site_fract_z
 _atom_site_occupancy
  Li  Li0  1  0.75354962  0.00008375  0.26366449  1
  Li  Li1  1  0.50008384  0.75354582  0.51366457  1
  Li  Li2  1  0.24645137  0.00008659  0.76366496  1
  Li  Li3  1  0.24645337  -0.00008243  0.26366463  1
  Li  Li4  1  0.49991139  0.24645329  0.51366393  1
  Li  Li5  1  -0.00009057  0.25354638  0.51366483  1
  Li  Li6  1  0.00008626  0.74645223  0.51366529  1
  Li  Li7  1  0.49991254  0.75354683  0.01366496  1
  Li  Li8  1  0.50008783  0.24645282  0.01366522  1
  Li  Li9  1  0.74645214  0.49991749  0.76366471  1
  Li  Li10  1  -0.00008666  0.74645242  0.01366397  1
  Li  Li11  1  0.25354883  0.50008398  0.76366451  1
  Li  Li12  1  0.00008724  0.25354735  0.01366451  1
  Li  Li13  1  0.74645246  0.50008557  0.26366482  1
  Li  Li14  1  0.25355034  0.49991280  0.26366520  1
  Li  Li15  1  0.75355001  -0.00008588  0.76366524  1
  I  I16  1  -0.00054328  0.25085563  0.76373234  1
  I  I17  1  0.75085467  -0.00054555  0.01373288  1
  I  I18  1  0.00054276  0.25085651  0.26373440  1
  I  I19  1  0.00054254  0.74914524  0.76373302  1
  I  I20  1  0.24914541  0.00054372  0.01373311  1
  I  I21  1  0.74914257  0.49946096  0.01373384  1
  I  I22  1  0.25085781  0.50054167  0.01373352  1
  I  I23  1  0.24914317  -0.00054183  0.51373349  1
  I  I24  1  0.75085583  0.00054012  0.51373400  1
  I  I25  1  0.50054338  0.24914488  0.26373305  1
  I  I26  1  0.74914325  0.50054476  0.51373283  1
  I  I27  1  0.49945799  0.75085544  0.26373276  1
  I  I28  1  0.25085566  0.49945625  0.51373332  1
  I  I29  1  0.50054213  0.75085692  0.76373364  1
  I  I30  1  0.49945805  0.24914321  0.76373376  1
  I  I31  1  -0.00054195  0.74914305  0.26373365  1
