# generated using pymatgen
data_KI
_symmetry_space_group_name_H-M   'P 1'
_cell_length_a   5.08639666
_cell_length_b   15.19468688
_cell_length_c   5.08096705
_cell_angle_alpha   70.86565423
_cell_angle_beta   89.96733450
_cell_angle_gamma   89.99124215
_symmetry_Int_Tables_number   1
_chemical_formula_structural   KI
_chemical_formula_sum   'K4 I4'
_cell_volume   370.99356814
_cell_formula_units_Z   4
loop_
 _symmetry_equiv_pos_site_id
 _symmetry_equiv_pos_as_xyz
  1  'x, y, z'
loop_
 _atom_site_type_symbol
 _atom_site_label
 _atom_site_symmetry_multiplicity
 _atom_site_fract_x
 _atom_site_fract_y
 _atom_site_fract_z
 _atom_site_occupancy
  K  K0  1  0.25033110  0.37538152  0.72715411  1
  K  K1  1  0.75045139  0.12459500  0.47413650  1
  K  K2  1  0.74963303  0.62458833  -0.02580397  1
  K  K3  1  0.24958044  0.87537593  0.22721540  1
  I  I4  1  -0.25008480  0.37462677  0.22751254  1
  I  I5  1  0.24993709  0.12539320  -0.02643446  1
  I  I6  1  0.25007291  0.62540334  0.47350193  1
  I  I7  1  0.75007885  0.87463591  0.72745783  1
