# generated using pymatgen
data_LiBr
_symmetry_space_group_name_H-M   'P 1'
_cell_length_a   13.35766248
_cell_length_b   14.95386075
_cell_length_c   4.05584691
_cell_angle_alpha   90.00053726
_cell_angle_beta   89.99981478
_cell_angle_gamma   90.03515118
_symmetry_Int_Tables_number   1
_chemical_formula_structural   LiBr
_chemical_formula_sum   'Li16 Br16'
_cell_volume   810.14968939
_cell_formula_units_Z   16
loop_
 _symmetry_equiv_pos_site_id
 _symmetry_equiv_pos_as_xyz
  1  'x, y, z'
loop_
 _atom_site_type_symbol
 _atom_site_label
 _atom_site_symmetry_multiplicity
 _atom_site_fract_x
 _atom_site_fract_y
 _atom_site_fract_z
 _atom_site_occupancy
  Li  Li0  1  0.16745302  0.45169772  0.27921023  1
  Li  Li1  1  0.83254339  0.54830350  0.27921860  1
  Li  Li2  1  0.08259163  0.70172597  0.52911602  1
  Li  Li3  1  0.33254565  0.54830195  0.77921567  1
  Li  Li4  1  0.58259232  0.70172729  0.02911800  1
  Li  Li5  1  0.41740922  0.79827282  0.52912542  1
  Li  Li6  1  0.66745440  0.45169596  0.77921595  1
  Li  Li7  1  0.58259210  0.20172654  0.52912012  1
  Li  Li8  1  0.41740799  0.29827226  0.02912655  1
  Li  Li9  1  0.66745573  0.95169686  0.27920873  1
  Li  Li10  1  0.33254282  0.04830356  0.27921820  1
  Li  Li11  1  0.08259380  0.20172783  0.02911740  1
  Li  Li12  1  0.91740998  0.79827321  0.02912289  1
  Li  Li13  1  0.91740618  0.29827166  0.52912413  1
  Li  Li14  1  0.16745638  0.95169595  0.77921149  1
  Li  Li15  1  0.83254662  0.04830292  0.77921055  1
  Br  Br16  1  0.89142457  0.69644023  0.51746902  1
  Br  Br17  1  0.10857538  0.30356297  0.51746935  1
  Br  Br18  1  0.35853707  0.94641908  0.76756494  1
  Br  Br19  1  0.60857523  0.30356004  0.01747410  1
  Br  Br20  1  0.85853784  0.94641782  0.26755922  1
  Br  Br21  1  0.14146207  0.55358397  0.76756465  1
  Br  Br22  1  0.39142463  0.69643942  0.01747156  1
  Br  Br23  1  0.85853648  0.44641692  0.76756305  1
  Br  Br24  1  0.14146151  0.05358308  0.26756311  1
  Br  Br25  1  0.39142382  0.19643991  0.51747447  1
  Br  Br26  1  0.60857649  0.80356084  0.51747088  1
  Br  Br27  1  0.35853544  0.44641678  0.26756332  1
  Br  Br28  1  0.64146129  0.55358297  0.26756818  1
  Br  Br29  1  0.64146488  0.05358249  0.76756339  1
  Br  Br30  1  0.89142481  0.19643832  0.01747107  1
  Br  Br31  1  0.10857728  0.80355914  0.01746944  1
