# generated using pymatgen
data_LiBr
_symmetry_space_group_name_H-M   'P 1'
_cell_length_a   4.19340550
_cell_length_b   6.68649708
_cell_length_c   4.18333167
_cell_angle_alpha   90.00001375
_cell_angle_beta   119.63313841
_cell_angle_gamma   89.99997814
_symmetry_Int_Tables_number   1
_chemical_formula_structural   LiBr
_chemical_formula_sum   'Li2 Br2'
_cell_volume   101.95583426
_cell_formula_units_Z   2
loop_
 _symmetry_equiv_pos_site_id
 _symmetry_equiv_pos_as_xyz
  1  'x, y, z'
loop_
 _atom_site_type_symbol
 _atom_site_label
 _atom_site_symmetry_multiplicity
 _atom_site_fract_x
 _atom_site_fract_y
 _atom_site_fract_z
 _atom_site_occupancy
  Li  Li0  1  0.66311994  0.94025865  0.83682290  1
  Li  Li1  1  0.33687998  0.44025872  0.16317715  1
  Br  Br2  1  0.32842770  0.82141746  0.17008192  1
  Br  Br3  1  0.67157238  0.32141743  -0.17008197  1
