# generated using pymatgen
data_LiBr
_symmetry_space_group_name_H-M   'P 1'
_cell_length_a   7.78582424
_cell_length_b   7.78582335
_cell_length_c   5.49865195
_cell_angle_alpha   90.00002768
_cell_angle_beta   90.00004654
_cell_angle_gamma   89.99976060
_symmetry_Int_Tables_number   1
_chemical_formula_structural   LiBr
_chemical_formula_sum   'Li8 Br8'
_cell_volume   333.32306895
_cell_formula_units_Z   8
loop_
 _symmetry_equiv_pos_site_id
 _symmetry_equiv_pos_as_xyz
  1  'x, y, z'
loop_
 _atom_site_type_symbol
 _atom_site_label
 _atom_site_symmetry_multiplicity
 _atom_site_fract_x
 _atom_site_fract_y
 _atom_site_fract_z
 _atom_site_occupancy
  Li  Li0  1  0.74895220  0.49943123  0.60134665  1
  Li  Li1  1  0.00056909  0.75104770  0.10134266  1
  Li  Li2  1  0.75105113  -0.00057350  0.60134557  1
  Li  Li3  1  -0.00057345  0.24894821  0.10134564  1
  Li  Li4  1  0.24895210  0.00057429  0.60135012  1
  Li  Li5  1  0.25105049  0.50057396  0.60134108  1
  Li  Li6  1  0.49942645  0.25104557  0.10134662  1
  Li  Li7  1  0.50057328  0.74894470  0.10134829  1
  Br  Br8  1  0.24977423  0.50022242  0.10047073  1
  Br  Br9  1  -0.00022166  0.25022796  0.60047008  1
  Br  Br10  1  0.25022541  0.00022181  0.10047134  1
  Br  Br11  1  0.00022135  0.74977541  0.60047089  1
  Br  Br12  1  0.74977264  -0.00022174  0.10046993  1
  Br  Br13  1  0.75022584  0.49977858  0.10047044  1
  Br  Br14  1  0.50022229  0.75022807  0.60047070  1
  Br  Br15  1  0.49977861  0.24977532  0.60047046  1
