# generated using pymatgen
data_LiBr
_symmetry_space_group_name_H-M   'P 1'
_cell_length_a   7.82430219
_cell_length_b   7.62288049
_cell_length_c   11.09058779
_cell_angle_alpha   90.00005211
_cell_angle_beta   90.00048097
_cell_angle_gamma   89.96084024
_symmetry_Int_Tables_number   1
_chemical_formula_structural   LiBr
_chemical_formula_sum   'Li16 Br16'
_cell_volume   661.48376319
_cell_formula_units_Z   16
loop_
 _symmetry_equiv_pos_site_id
 _symmetry_equiv_pos_as_xyz
  1  'x, y, z'
loop_
 _atom_site_type_symbol
 _atom_site_label
 _atom_site_symmetry_multiplicity
 _atom_site_fract_x
 _atom_site_fract_y
 _atom_site_fract_z
 _atom_site_occupancy
  Li  Li0  1  0.24985894  0.50057660  0.52112069  1
  Li  Li1  1  0.75014057  0.49942267  0.52112079  1
  Li  Li2  1  0.00006541  0.75068008  0.77096731  1
  Li  Li3  1  0.25013971  0.49942348  0.02112113  1
  Li  Li4  1  0.50006556  0.75067919  0.27096768  1
  Li  Li5  1  0.49993503  0.74931840  0.77096227  1
  Li  Li6  1  0.74986113  0.50057656  0.02112032  1
  Li  Li7  1  0.50006443  0.25068124  0.77096703  1
  Li  Li8  1  0.49993512  0.24932117  0.27096244  1
  Li  Li9  1  0.74985920  0.00057744  0.52112090  1
  Li  Li10  1  0.25014164  -0.00057639  0.52112140  1
  Li  Li11  1  0.00006533  0.25068057  0.27096703  1
  Li  Li12  1  -0.00006500  0.74932054  0.27096197  1
  Li  Li13  1  -0.00006462  0.24932035  0.77096223  1
  Li  Li14  1  0.24986028  0.00057614  0.02112097  1
  Li  Li15  1  0.75013929  -0.00057644  0.02112068  1
  Br  Br16  1  0.24992358  0.50001604  0.27109744  1
  Br  Br17  1  0.75007667  0.49998242  0.27109732  1
  Br  Br18  1  0.00010291  0.74986481  0.52109834  1
  Br  Br19  1  0.25007721  0.49998302  0.77109695  1
  Br  Br20  1  0.50010355  0.74986617  0.02109846  1
  Br  Br21  1  0.49989706  0.75013532  0.52109892  1
  Br  Br22  1  0.74992190  0.50001596  0.77109678  1
  Br  Br23  1  0.50010328  0.24986607  0.52109928  1
  Br  Br24  1  0.49989673  0.25013549  0.02109779  1
  Br  Br25  1  0.74992336  0.00001623  0.27109685  1
  Br  Br26  1  0.25007587  -0.00001645  0.27109698  1
  Br  Br27  1  0.00010234  0.24986542  0.02109890  1
  Br  Br28  1  -0.00010263  0.75013418  0.02109856  1
  Br  Br29  1  -0.00010362  0.25013470  0.52109787  1
  Br  Br30  1  0.24992340  0.00001497  0.77109729  1
  Br  Br31  1  0.75007635  -0.00001594  0.77109712  1
