# generated using pymatgen
data_LiBr
_symmetry_space_group_name_H-M   'P 1'
_cell_length_a   4.42136599
_cell_length_b   7.79586664
_cell_length_c   5.69702599
_cell_angle_alpha   89.99999800
_cell_angle_beta   90.02599381
_cell_angle_gamma   89.99999843
_symmetry_Int_Tables_number   1
_chemical_formula_structural   LiBr
_chemical_formula_sum   'Li4 Br4'
_cell_volume   196.36723444
_cell_formula_units_Z   4
loop_
 _symmetry_equiv_pos_site_id
 _symmetry_equiv_pos_as_xyz
  1  'x, y, z'
loop_
 _atom_site_type_symbol
 _atom_site_label
 _atom_site_symmetry_multiplicity
 _atom_site_fract_x
 _atom_site_fract_y
 _atom_site_fract_z
 _atom_site_occupancy
  Li  Li0  1  0.24964069  0.41692940  0.74957030  1
  Li  Li1  1  0.75035915  0.91693192  0.75043002  1
  Li  Li2  1  0.75035893  0.58306838  0.25042919  1
  Li  Li3  1  0.24964098  0.08307023  0.24956946  1
  Br  Br4  1  0.74982346  0.58578145  0.75022307  1
  Br  Br5  1  0.25017669  0.08578200  0.74977750  1
  Br  Br6  1  0.25017668  0.41421819  0.24977745  1
  Br  Br7  1  0.74982342  0.91421843  0.25022301  1
