# generated using pymatgen
data_LiBr
_symmetry_space_group_name_H-M   'P 1'
_cell_length_a   7.21844721
_cell_length_b   4.18496526
_cell_length_c   6.77069545
_cell_angle_alpha   89.99997479
_cell_angle_beta   90.00011001
_cell_angle_gamma   89.99936095
_symmetry_Int_Tables_number   1
_chemical_formula_structural   LiBr
_chemical_formula_sum   'Li4 Br4'
_cell_volume   204.53560560
_cell_formula_units_Z   4
loop_
 _symmetry_equiv_pos_site_id
 _symmetry_equiv_pos_as_xyz
  1  'x, y, z'
loop_
 _atom_site_type_symbol
 _atom_site_label
 _atom_site_symmetry_multiplicity
 _atom_site_fract_x
 _atom_site_fract_y
 _atom_site_fract_z
 _atom_site_occupancy
  Li  Li0  1  0.58096969  0.74997589  0.85063303  1
  Li  Li1  1  0.08096729  0.25002953  0.85063436  1
  Li  Li2  1  0.41902949  0.25002366  0.35063096  1
  Li  Li3  1  0.91903345  0.74997080  0.35063507  1
  Br  Br4  1  0.08517739  0.25011818  0.22832383  1
  Br  Br5  1  0.58518042  0.74986794  0.22832419  1
  Br  Br6  1  0.91482219  0.74988319  0.72832480  1
  Br  Br7  1  0.41482008  0.25013080  0.72832363  1
