# generated using pymatgen
data_LiBr
_symmetry_space_group_name_H-M   'P 1'
_cell_length_a   5.50155243
_cell_length_b   5.50629616
_cell_length_c   5.51102665
_cell_angle_alpha   90.00017301
_cell_angle_beta   90.00664770
_cell_angle_gamma   90.00000641
_symmetry_Int_Tables_number   1
_chemical_formula_structural   LiBr
_chemical_formula_sum   'Li4 Br4'
_cell_volume   166.94650467
_cell_formula_units_Z   4
loop_
 _symmetry_equiv_pos_site_id
 _symmetry_equiv_pos_as_xyz
  1  'x, y, z'
loop_
 _atom_site_type_symbol
 _atom_site_label
 _atom_site_symmetry_multiplicity
 _atom_site_fract_x
 _atom_site_fract_y
 _atom_site_fract_z
 _atom_site_occupancy
  Li  Li0  1  0.25162486  -0.00167414  0.25088247  1
  Li  Li1  1  0.74837612  0.49832304  0.24912046  1
  Li  Li2  1  0.74837533  0.00167403  0.74911774  1
  Li  Li3  1  0.25162383  0.50167699  0.75087998  1
  Br  Br4  1  0.75020711  0.50053494  0.75007637  1
  Br  Br5  1  0.24979358  0.00053509  0.74992436  1
  Br  Br6  1  0.24979274  0.49946511  0.24992353  1
  Br  Br7  1  0.75020643  -0.00053506  0.25007509  1
