# generated using pymatgen
data_LiBr
_symmetry_space_group_name_H-M   'P 1'
_cell_length_a   11.81567718
_cell_length_b   10.74067615
_cell_length_c   7.90650032
_cell_angle_alpha   90.00001442
_cell_angle_beta   90.00012288
_cell_angle_gamma   89.99996476
_symmetry_Int_Tables_number   1
_chemical_formula_structural   LiBr
_chemical_formula_sum   'Li16 Br16'
_cell_volume   1003.40100468
_cell_formula_units_Z   16
loop_
 _symmetry_equiv_pos_site_id
 _symmetry_equiv_pos_as_xyz
  1  'x, y, z'
loop_
 _atom_site_type_symbol
 _atom_site_label
 _atom_site_symmetry_multiplicity
 _atom_site_fract_x
 _atom_site_fract_y
 _atom_site_fract_z
 _atom_site_occupancy
  Li  Li0  1  0.36374462  0.00017955  0.80369404  1
  Li  Li1  1  0.63625602  -0.00017880  0.80369056  1
  Li  Li2  1  0.88625558  0.25017895  0.05369148  1
  Li  Li3  1  0.13625551  -0.00017849  0.30369166  1
  Li  Li4  1  0.38625528  0.25017820  0.55369105  1
  Li  Li5  1  0.61374431  0.24982024  0.05369331  1
  Li  Li6  1  0.86374465  0.00017971  0.30369286  1
  Li  Li7  1  0.38625602  0.75017882  0.05369208  1
  Li  Li8  1  0.61374422  0.74982041  0.55369335  1
  Li  Li9  1  0.86374446  0.50017995  0.80369445  1
  Li  Li10  1  0.13625538  0.49982142  0.80369052  1
  Li  Li11  1  0.88625532  0.75017857  0.55369043  1
  Li  Li12  1  0.11374390  0.24982040  0.55369388  1
  Li  Li13  1  0.11374447  0.74982103  0.05369268  1
  Li  Li14  1  0.36374401  0.50017888  0.30369341  1
  Li  Li15  1  0.63625572  0.49982060  0.30369177  1
  Br  Br16  1  0.50007409  0.18449953  0.80356778  1
  Br  Br17  1  0.49992667  0.81550078  0.80356886  1
  Br  Br18  1  0.74992580  0.43449905  0.05356820  1
  Br  Br19  1  -0.00007346  0.81550074  0.30356822  1
  Br  Br20  1  0.24992617  0.43449881  0.55356824  1
  Br  Br21  1  0.75007412  0.06550047  0.05356760  1
  Br  Br22  1  0.00007362  0.18450022  0.30356852  1
  Br  Br23  1  0.24992660  0.93449960  0.05356895  1
  Br  Br24  1  0.75007378  0.56549986  0.55356870  1
  Br  Br25  1  0.00007380  0.68450027  0.80356761  1
  Br  Br26  1  -0.00007373  0.31550111  0.80356893  1
  Br  Br27  1  0.74992627  0.93449985  0.55356741  1
  Br  Br28  1  0.25007344  0.06550036  0.55356917  1
  Br  Br29  1  0.25007370  0.56550050  0.05356801  1
  Br  Br30  1  0.50007348  0.68449892  0.30356906  1
  Br  Br31  1  0.49992616  0.31550046  0.30356841  1
