# generated using pymatgen
data_LiBr
_symmetry_space_group_name_H-M   'P 1'
_cell_length_a   3.95836207
_cell_length_b   3.96081618
_cell_length_c   12.93616113
_cell_angle_alpha   90.00012490
_cell_angle_beta   90.00164609
_cell_angle_gamma   91.15192683
_symmetry_Int_Tables_number   1
_chemical_formula_structural   LiBr
_chemical_formula_sum   'Li4 Br4'
_cell_volume   202.77660200
_cell_formula_units_Z   4
loop_
 _symmetry_equiv_pos_site_id
 _symmetry_equiv_pos_as_xyz
  1  'x, y, z'
loop_
 _atom_site_type_symbol
 _atom_site_label
 _atom_site_symmetry_multiplicity
 _atom_site_fract_x
 _atom_site_fract_y
 _atom_site_fract_z
 _atom_site_occupancy
  Li  Li0  1  0.01043492  0.99057360  0.28673601  1
  Li  Li1  1  0.98891131  0.99031622  0.03668000  1
  Li  Li2  1  0.98954322  0.00942155  0.78674121  1
  Li  Li3  1  0.01109666  0.00969518  0.53668587  1
  Br  Br4  1  0.50983548  0.00794916  0.41165797  1
  Br  Br5  1  0.00925074  0.49187489  0.16162363  1
  Br  Br6  1  0.49016498  -0.00795360  0.91165484  1
  Br  Br7  1  -0.00923730  0.50812299  0.66161816  1
