# generated using pymatgen
data_LiBr
_symmetry_space_group_name_H-M   'P 1'
_cell_length_a   4.21640743
_cell_length_b   6.98198090
_cell_length_c   6.77062651
_cell_angle_alpha   90.00005084
_cell_angle_beta   94.32455245
_cell_angle_gamma   90.00001618
_symmetry_Int_Tables_number   1
_chemical_formula_structural   LiBr
_chemical_formula_sum   'Li4 Br4'
_cell_volume   198.75215453
_cell_formula_units_Z   4
loop_
 _symmetry_equiv_pos_site_id
 _symmetry_equiv_pos_as_xyz
  1  'x, y, z'
loop_
 _atom_site_type_symbol
 _atom_site_label
 _atom_site_symmetry_multiplicity
 _atom_site_fract_x
 _atom_site_fract_y
 _atom_site_fract_z
 _atom_site_occupancy
  Li  Li0  1  0.57416362  0.32808571  0.90314759  1
  Li  Li1  1  0.07416368  0.82808575  0.90314741  1
  Li  Li2  1  0.57416503  0.67191444  0.40314697  1
  Li  Li3  1  0.07416492  0.17191439  0.40314651  1
  Br  Br4  1  0.06204340  0.83220366  0.27778581  1
  Br  Br5  1  0.56204335  0.33220373  0.27778588  1
  Br  Br6  1  0.06204185  0.16779619  0.77778644  1
  Br  Br7  1  0.56204191  0.66779614  0.77778647  1
