# generated using pymatgen
data_LiBr
_symmetry_space_group_name_H-M   'P 1'
_cell_length_a   3.89314811
_cell_length_b   3.89316468
_cell_length_c   9.54616010
_cell_angle_alpha   90.06711053
_cell_angle_beta   89.93302519
_cell_angle_gamma   119.95269228
_symmetry_Int_Tables_number   1
_chemical_formula_structural   LiBr
_chemical_formula_sum   'Li3 Br3'
_cell_volume   125.36303054
_cell_formula_units_Z   3
loop_
 _symmetry_equiv_pos_site_id
 _symmetry_equiv_pos_as_xyz
  1  'x, y, z'
loop_
 _atom_site_type_symbol
 _atom_site_label
 _atom_site_symmetry_multiplicity
 _atom_site_fract_x
 _atom_site_fract_y
 _atom_site_fract_z
 _atom_site_occupancy
  Li  Li0  1  0.66833301  -0.00145495  0.36331783  1
  Li  Li1  1  0.00141430  0.66970369  0.69678668  1
  Li  Li2  1  0.33030300  0.33169128  0.03006879  1
  Br  Br3  1  0.33459340  0.33405265  0.52981603  1
  Br  Br4  1  0.66600831  0.00058860  0.86306416  1
  Br  Br5  1  -0.00065202  0.66541873  0.19651421  1
