# generated using pymatgen
data_LiBr
_symmetry_space_group_name_H-M   'P 1'
_cell_length_a   11.45106402
_cell_length_b   11.45106403
_cell_length_c   7.96254008
_cell_angle_alpha   90.00436019
_cell_angle_beta   89.99552587
_cell_angle_gamma   120.00319160
_symmetry_Int_Tables_number   1
_chemical_formula_structural   LiBr
_chemical_formula_sum   'Li18 Br18'
_cell_volume   904.19058179
_cell_formula_units_Z   18
loop_
 _symmetry_equiv_pos_site_id
 _symmetry_equiv_pos_as_xyz
  1  'x, y, z'
loop_
 _atom_site_type_symbol
 _atom_site_label
 _atom_site_symmetry_multiplicity
 _atom_site_fract_x
 _atom_site_fract_y
 _atom_site_fract_z
 _atom_site_occupancy
  Li  Li0  1  0.87077983  0.13187581  0.10320582  1
  Li  Li1  1  0.87073826  0.73886421  0.60319191  1
  Li  Li2  1  0.20153339  0.79597676  0.26984183  1
  Li  Li3  1  0.59446721  0.79848995  0.26983345  1
  Li  Li4  1  0.53474785  0.07220762  0.43653406  1
  Li  Li5  1  0.86810395  0.73887301  0.10319129  1
  Li  Li6  1  0.59447700  0.79600226  0.76983616  1
  Li  Li7  1  0.20150918  0.40553176  0.76983553  1
  Li  Li8  1  0.26113452  0.12926022  0.10319266  1
  Li  Li9  1  0.26112623  0.13189304  0.60319271  1
  Li  Li10  1  0.20402550  0.79846857  0.76984158  1
  Li  Li11  1  0.20399662  0.40552251  0.26983765  1
  Li  Li12  1  0.92780293  0.46257349  0.43652856  1
  Li  Li13  1  0.92779544  0.46525581  0.93653624  1
  Li  Li14  1  0.86812274  0.12921729  0.60320708  1
  Li  Li15  1  0.53474846  0.46255710  0.93654517  1
  Li  Li16  1  0.53744269  0.46525123  0.43654553  1
  Li  Li17  1  0.53742841  0.07219845  0.93652519  1
  Br  Br18  1  0.75938634  0.88072517  0.02905820  1
  Br  Br19  1  0.75939281  0.87866366  0.52904209  1
  Br  Br20  1  0.45266370  0.90732428  0.19575316  1
  Br  Br21  1  0.45464489  0.54733770  0.19577333  1
  Br  Br22  1  0.78600917  0.21200174  0.36248257  1
  Br  Br23  1  0.11928311  0.87865394  0.02906455  1
  Br  Br24  1  0.45465265  0.90731874  0.69574784  1
  Br  Br25  1  0.45265952  0.54535272  0.69577323  1
  Br  Br26  1  0.12133640  0.24060659  0.02904525  1
  Br  Br27  1  0.12134670  0.88071798  0.52906393  1
  Br  Br28  1  0.09267979  0.54733792  0.69575473  1
  Br  Br29  1  0.09268316  0.54534876  0.19575088  1
  Br  Br30  1  0.78799443  0.57399304  0.36245352  1
  Br  Br31  1  0.78800035  0.21399361  0.86248200  1
  Br  Br32  1  0.11927526  0.24061147  0.52905933  1
  Br  Br33  1  0.78600212  0.57399380  0.86246235  1
  Br  Br34  1  0.42600501  0.21399616  0.36246230  1
  Br  Br35  1  0.42600439  0.21200362  0.86245435  1
