# generated using pymatgen
data_LiI
_symmetry_space_group_name_H-M   'P 1'
_cell_length_a   7.74731233
_cell_length_b   4.61684203
_cell_length_c   7.42800871
_cell_angle_alpha   89.99976540
_cell_angle_beta   89.99993861
_cell_angle_gamma   90.00012565
_symmetry_Int_Tables_number   1
_chemical_formula_structural   LiI
_chemical_formula_sum   'Li4 I4'
_cell_volume   265.68588597
_cell_formula_units_Z   4
loop_
 _symmetry_equiv_pos_site_id
 _symmetry_equiv_pos_as_xyz
  1  'x, y, z'
loop_
 _atom_site_type_symbol
 _atom_site_label
 _atom_site_symmetry_multiplicity
 _atom_site_fract_x
 _atom_site_fract_y
 _atom_site_fract_z
 _atom_site_occupancy
  Li  Li0  1  0.58323740  0.75058938  0.19460871  1
  Li  Li1  1  0.08323436  0.24940737  0.19461185  1
  Li  Li2  1  0.41676501  0.24940765  0.69461018  1
  Li  Li3  1  0.91676149  0.75059276  0.69460945  1
  I  I4  1  0.42103092  0.25055930  0.07059977  1
  I  I5  1  0.92103165  0.74944177  0.07059957  1
  I  I6  1  0.57896898  0.74944156  0.57059956  1
  I  I7  1  0.07897019  0.25056020  0.57060030  1
