# generated using pymatgen
data_NaBr
_symmetry_space_group_name_H-M   'P 1'
_cell_length_a   7.28141286
_cell_length_b   4.19642008
_cell_length_c   7.22154587
_cell_angle_alpha   90.00005834
_cell_angle_beta   90.00029244
_cell_angle_gamma   90.00000270
_symmetry_Int_Tables_number   1
_chemical_formula_structural   NaBr
_chemical_formula_sum   'Na4 Br4'
_cell_volume   220.66059579
_cell_formula_units_Z   4
loop_
 _symmetry_equiv_pos_site_id
 _symmetry_equiv_pos_as_xyz
  1  'x, y, z'
loop_
 _atom_site_type_symbol
 _atom_site_label
 _atom_site_symmetry_multiplicity
 _atom_site_fract_x
 _atom_site_fract_y
 _atom_site_fract_z
 _atom_site_occupancy
  Na  Na0  1  0.24905509  -0.00072540  0.25061522  1
  Na  Na1  1  0.75094481  0.49927515  0.24938344  1
  Na  Na2  1  0.25094618  0.00072415  0.75061484  1
  Na  Na3  1  0.74905374  0.50072467  0.74938651  1
  Br  Br4  1  0.08258260  0.50106565  0.50055121  1
  Br  Br5  1  0.91741749  0.00106702  -0.00055291  1
  Br  Br6  1  0.41741402  0.49893368  0.00055207  1
  Br  Br7  1  0.58258606  -0.00106493  0.49944962  1
