# generated using pymatgen
data_LiI
_symmetry_space_group_name_H-M   'P 1'
_cell_length_a   11.58146714
_cell_length_b   11.58149233
_cell_length_c   12.71154134
_cell_angle_alpha   90.00242064
_cell_angle_beta   89.99805569
_cell_angle_gamma   120.00248312
_symmetry_Int_Tables_number   1
_chemical_formula_structural   LiI
_chemical_formula_sum   'Li18 I18'
_cell_volume   1476.54293925
_cell_formula_units_Z   18
loop_
 _symmetry_equiv_pos_site_id
 _symmetry_equiv_pos_as_xyz
  1  'x, y, z'
loop_
 _atom_site_type_symbol
 _atom_site_label
 _atom_site_symmetry_multiplicity
 _atom_site_fract_x
 _atom_site_fract_y
 _atom_site_fract_z
 _atom_site_occupancy
  Li  Li0  1  0.91583089  0.58324845  0.63322643  1
  Li  Li1  1  0.91582934  0.33258113  0.13322497  1
  Li  Li2  1  0.74999780  0.75080220  0.79990455  1
  Li  Li3  1  0.00080263  0.25000189  0.79990838  1
  Li  Li4  1  0.08325614  0.66584961  -0.03341671  1
  Li  Li5  1  0.41675443  0.33258601  0.63322816  1
  Li  Li6  1  0.00080526  0.75080357  0.29990615  1
  Li  Li7  1  0.74999793  0.99919628  0.29990799  1
  Li  Li8  1  0.66741550  0.08416966  0.63322575  1
  Li  Li9  1  0.66741863  0.58324660  0.13322573  1
  Li  Li10  1  0.24919858  0.25000355  0.29990526  1
  Li  Li11  1  0.24919664  0.99919416  0.79990642  1
  Li  Li12  1  0.33415212  0.41740148  -0.03341947  1
  Li  Li13  1  0.33415115  0.91674413  0.46658341  1
  Li  Li14  1  0.41675219  0.08416865  0.13322548  1
  Li  Li15  1  0.08325484  0.41740859  0.46658180  1
  Li  Li16  1  0.58259210  0.91674543  -0.03341695  1
  Li  Li17  1  0.58259811  0.66584659  0.46658077  1
  I  I18  1  0.56879457  0.66711631  0.96700110  1
  I  I19  1  0.56878515  0.90167422  0.46699800  1
  I  I20  1  0.66624364  0.09788760  0.13368474  1
  I  I21  1  0.43163873  0.33374522  0.13367225  1
  I  I22  1  0.99951789  0.23501083  0.30032361  1
  I  I23  1  0.33289377  0.90168460  0.96699249  1
  I  I24  1  0.43164751  0.09789820  0.63367903  1
  I  I25  1  0.66625643  0.56836216  0.63367311  1
  I  I26  1  0.09832634  0.43121304  0.96699638  1
  I  I27  1  0.09831538  0.66710772  0.46699246  1
  I  I28  1  0.90211093  0.33375478  0.63368489  1
  I  I29  1  0.90210230  0.56835280  0.13368105  1
  I  I30  1  0.76499856  0.76450844  0.30032369  1
  I  I31  1  0.76498865  0.00048232  0.80032312  1
  I  I32  1  0.33288226  0.43120632  0.46700184  1
  I  I33  1  0.99950833  0.76450349  0.80033167  1
  I  I34  1  0.23549663  0.00049200  0.30033222  1
  I  I35  1  0.23548861  0.23500199  0.80032578  1
