# generated using pymatgen
data_NaBr
_symmetry_space_group_name_H-M   'P 1'
_cell_length_a   8.81637969
_cell_length_b   5.02474191
_cell_length_c   6.00821081
_cell_angle_alpha   89.99998824
_cell_angle_beta   89.99827854
_cell_angle_gamma   89.99995959
_symmetry_Int_Tables_number   1
_chemical_formula_structural   NaBr
_chemical_formula_sum   'Na4 Br4'
_cell_volume   266.16393430
_cell_formula_units_Z   4
loop_
 _symmetry_equiv_pos_site_id
 _symmetry_equiv_pos_as_xyz
  1  'x, y, z'
loop_
 _atom_site_type_symbol
 _atom_site_label
 _atom_site_symmetry_multiplicity
 _atom_site_fract_x
 _atom_site_fract_y
 _atom_site_fract_z
 _atom_site_occupancy
  Na  Na0  1  0.08525314  0.74950734  0.74212427  1
  Na  Na1  1  0.58525341  0.25049324  0.74212394  1
  Na  Na2  1  -0.08525768  0.25048875  0.24211535  1
  Na  Na3  1  0.41474240  0.74951082  0.24211523  1
  Br  Br4  1  0.41589505  0.75037034  0.74213580  1
  Br  Br5  1  0.91589524  0.24963044  0.74213552  1
  Br  Br6  1  0.58410921  0.24963589  0.24213592  1
  Br  Br7  1  0.08410925  0.75036319  0.24213652  1
