# generated using pymatgen
data_KBr
_symmetry_space_group_name_H-M   'P 1'
_cell_length_a   4.63924812
_cell_length_b   8.05623961
_cell_length_c   9.32677227
_cell_angle_alpha   89.99996796
_cell_angle_beta   119.71303028
_cell_angle_gamma   90.00006011
_symmetry_Int_Tables_number   1
_chemical_formula_structural   KBr
_chemical_formula_sum   'K4 Br4'
_cell_volume   302.75448006
_cell_formula_units_Z   4
loop_
 _symmetry_equiv_pos_site_id
 _symmetry_equiv_pos_as_xyz
  1  'x, y, z'
loop_
 _atom_site_type_symbol
 _atom_site_label
 _atom_site_symmetry_multiplicity
 _atom_site_fract_x
 _atom_site_fract_y
 _atom_site_fract_z
 _atom_site_occupancy
  K  K0  1  -0.01382409  0.75116786  0.40982343  1
  K  K1  1  0.48617615  0.25116775  0.40982354  1
  K  K2  1  -0.01382333  0.24883222  0.90982351  1
  K  K3  1  0.48617637  0.74883215  0.90982337  1
  Br  Br4  1  0.23595506  0.91721608  0.16027487  1
  Br  Br5  1  0.73595527  0.41721607  0.16027498  1
  Br  Br6  1  0.23595419  0.08278394  0.66027503  1
  Br  Br7  1  0.73595393  0.58278393  0.66027488  1
