# generated using pymatgen
data_LiBr
_symmetry_space_group_name_H-M   'P 1'
_cell_length_a   11.60007399
_cell_length_b   11.60008691
_cell_length_c   7.63934140
_cell_angle_alpha   90.00313450
_cell_angle_beta   89.99677414
_cell_angle_gamma   120.00317734
_symmetry_Int_Tables_number   1
_chemical_formula_structural   LiBr
_chemical_formula_sum   'Li18 Br18'
_cell_volume   890.21446385
_cell_formula_units_Z   18
loop_
 _symmetry_equiv_pos_site_id
 _symmetry_equiv_pos_as_xyz
  1  'x, y, z'
loop_
 _atom_site_type_symbol
 _atom_site_label
 _atom_site_symmetry_multiplicity
 _atom_site_fract_x
 _atom_site_fract_y
 _atom_site_fract_z
 _atom_site_occupancy
  Li  Li0  1  0.79504046  0.20436889  0.38395416  1
  Li  Li1  1  0.79505297  0.59067833  0.88394876  1
  Li  Li2  1  0.12921353  0.87171793  0.55110847  1
  Li  Li3  1  0.74252164  0.87079702  0.55108873  1
  Li  Li4  1  0.46253253  0.92409026  0.71710042  1
  Li  Li5  1  0.79564492  0.59068886  0.38394670  1
  Li  Li6  1  0.74250524  0.87170970  0.05109905  1
  Li  Li7  1  0.12920508  0.25747987  0.05109255  1
  Li  Li8  1  0.40932400  0.20494974  0.38395025  1
  Li  Li9  1  0.40930967  0.20435729  0.88395153  1
  Li  Li10  1  0.12828333  0.87078700  0.05110737  1
  Li  Li11  1  0.12828941  0.25749172  0.55110032  1
  Li  Li12  1  0.07591215  0.53842331  0.71710242  1
  Li  Li13  1  0.07591077  0.53746664  0.21710121  1
  Li  Li14  1  0.79563020  0.20495913  0.88395716  1
  Li  Li15  1  0.46252046  0.53842933  0.21710275  1
  Li  Li16  1  0.46157047  0.53748053  0.71710286  1
  Li  Li17  1  0.46157433  0.92408713  0.21710324  1
  Br  Br18  1  0.23941319  0.11929879  0.12607320  1
  Br  Br19  1  0.23941753  0.12011934  0.62606741  1
  Br  Br20  1  0.21409374  0.42737262  0.29322369  1
  Br  Br21  1  0.21327730  0.78589761  0.29321162  1
  Br  Br22  1  0.54730439  0.45331618  0.45952895  1
  Br  Br23  1  0.88068677  0.12011617  0.12604974  1
  Br  Br24  1  0.21327994  0.42738424  0.79322973  1
  Br  Br25  1  0.21410163  0.78672101  0.79321104  1
  Br  Br26  1  0.87988107  0.76058423  0.12606435  1
  Br  Br27  1  0.87988267  0.11931410  0.62604972  1
  Br  Br28  1  0.57262775  0.78590738  0.79322075  1
  Br  Br29  1  0.57261335  0.78671901  0.29322883  1
  Br  Br30  1  0.54668578  0.09399477  0.45955449  1
  Br  Br31  1  0.54668503  0.45269720  -0.04047130  1
  Br  Br32  1  0.88070082  0.76058574  0.62606806  1
  Br  Br33  1  0.54729782  0.09399488  -0.04044609  1
  Br  Br34  1  0.90600498  0.45270019  0.45955374  1
  Br  Br35  1  0.90600506  0.45331388  -0.04044414  1
