# generated using pymatgen
data_LiBr
_symmetry_space_group_name_H-M   'P 1'
_cell_length_a   6.61251225
_cell_length_b   6.61243662
_cell_length_c   3.94925751
_cell_angle_alpha   90.00324316
_cell_angle_beta   90.00219338
_cell_angle_gamma   120.00713680
_symmetry_Int_Tables_number   1
_chemical_formula_structural   LiBr
_chemical_formula_sum   'Li3 Br3'
_cell_volume   149.53500095
_cell_formula_units_Z   3
loop_
 _symmetry_equiv_pos_site_id
 _symmetry_equiv_pos_as_xyz
  1  'x, y, z'
loop_
 _atom_site_type_symbol
 _atom_site_label
 _atom_site_symmetry_multiplicity
 _atom_site_fract_x
 _atom_site_fract_y
 _atom_site_fract_z
 _atom_site_occupancy
  Li  Li0  1  0.66641245  0.94233999  0.32175870  1
  Li  Li1  1  0.05762571  0.72408177  0.65522150  1
  Li  Li2  1  0.27593508  0.33351113  0.98846819  1
  Br  Br3  1  0.30888199  -0.02448899  0.15495642  1
  Br  Br4  1  0.02452942  0.33341462  0.48811692  1
  Br  Br5  1  0.66661535  0.69114148  0.82143447  1
