# generated using pymatgen
data_LiI
_symmetry_space_group_name_H-M   'P 1'
_cell_length_a   11.72582552
_cell_length_b   11.72798842
_cell_length_c   12.17909691
_cell_angle_alpha   90.01940432
_cell_angle_beta   90.00782459
_cell_angle_gamma   119.99730028
_symmetry_Int_Tables_number   1
_chemical_formula_structural   LiI
_chemical_formula_sum   'Li18 I18'
_cell_volume   1450.52238614
_cell_formula_units_Z   18
loop_
 _symmetry_equiv_pos_site_id
 _symmetry_equiv_pos_as_xyz
  1  'x, y, z'
loop_
 _atom_site_type_symbol
 _atom_site_label
 _atom_site_symmetry_multiplicity
 _atom_site_fract_x
 _atom_site_fract_y
 _atom_site_fract_z
 _atom_site_occupancy
  Li  Li0  1  0.24988521  0.00020149  0.25003729  1
  Li  Li1  1  0.91635804  0.58317784  0.08304930  1
  Li  Li2  1  0.75011468  -0.00020119  0.74996293  1
  Li  Li3  1  0.75028348  0.75017545  0.25013879  1
  Li  Li4  1  0.66711420  0.08368286  0.08313845  1
  Li  Li5  1  0.00036685  0.75028570  0.74995060  1
  Li  Li6  1  0.66617665  0.58290831  0.58355639  1
  Li  Li7  1  -0.00036701  0.24971399  0.25005003  1
  Li  Li8  1  0.24971729  0.24982501  0.74986047  1
  Li  Li9  1  0.33382165  0.41709239  0.41644198  1
  Li  Li10  1  0.33288690  0.91631595  0.91686208  1
  Li  Li11  1  0.41703582  0.08350177  0.58365484  1
  Li  Li12  1  0.58296352  0.91649872  0.41634538  1
  Li  Li13  1  0.08364142  0.41682148  0.91695248  1
  Li  Li14  1  0.91653024  0.33368051  0.58356500  1
  Li  Li15  1  0.08346905  0.66631817  0.41643534  1
  Li  Li16  1  0.41681209  0.33308085  0.08316761  1
  Li  Li17  1  0.58318905  0.66691978  0.91683077  1
  I  I18  1  0.00013055  0.77165287  0.24981013  1
  I  I19  1  0.89505817  0.33337457  0.08326149  1
  I  I20  1  -0.00012923  0.22834774  0.75018865  1
  I  I21  1  0.77142934  -0.00007337  0.24983551  1
  I  I22  1  0.43839911  0.10492074  0.08326543  1
  I  I23  1  0.77162646  0.77141326  0.75017319  1
  I  I24  1  0.89508749  0.56195819  0.58326837  1
  I  I25  1  0.22837506  0.22858747  0.24982683  1
  I  I26  1  0.22857105  0.00007248  0.75016445  1
  I  I27  1  0.10491494  0.43804355  0.41673156  1
  I  I28  1  0.56159847  0.89507680  -0.08326673  1
  I  I29  1  0.43806758  0.33325362  0.58330922  1
  I  I30  1  0.56193405  0.66674817  0.41669132  1
  I  I31  1  0.10493919  0.66662373  -0.08326124  1
  I  I32  1  0.66676391  0.10492545  0.58329252  1
  I  I33  1  0.33323637  0.89507586  0.41670747  1
  I  I34  1  0.66660341  0.56159698  0.08329933  1
  I  I35  1  0.33339495  0.43840282  -0.08329721  1
