# generated using pymatgen
data_LiBr
_symmetry_space_group_name_H-M   'P 1'
_cell_length_a   11.92853947
_cell_length_b   11.92857254
_cell_length_c   6.85948120
_cell_angle_alpha   90.00001069
_cell_angle_beta   90.00001571
_cell_angle_gamma   90.00008698
_symmetry_Int_Tables_number   1
_chemical_formula_structural   LiBr
_chemical_formula_sum   'Li16 Br16'
_cell_volume   976.03865476
_cell_formula_units_Z   16
loop_
 _symmetry_equiv_pos_site_id
 _symmetry_equiv_pos_as_xyz
  1  'x, y, z'
loop_
 _atom_site_type_symbol
 _atom_site_label
 _atom_site_symmetry_multiplicity
 _atom_site_fract_x
 _atom_site_fract_y
 _atom_site_fract_z
 _atom_site_occupancy
  Li  Li0  1  0.24317436  0.38676114  0.34613396  1
  Li  Li1  1  0.61323913  0.24317295  0.34613237  1
  Li  Li2  1  0.75682506  0.38676250  0.65386626  1
  Li  Li3  1  0.88676014  0.25682650  0.15386912  1
  Li  Li4  1  0.74317475  0.11323920  0.84613465  1
  Li  Li5  1  0.11324028  0.74317305  0.15386597  1
  Li  Li6  1  0.25682560  0.11323944  0.15386474  1
  Li  Li7  1  0.74317437  0.88676083  0.15386463  1
  Li  Li8  1  0.88676009  0.74317266  0.84613295  1
  Li  Li9  1  0.25682538  0.88676028  0.84613222  1
  Li  Li10  1  0.11323979  0.25682686  0.84613565  1
  Li  Li11  1  0.75682528  0.61323801  0.34613499  1
  Li  Li12  1  0.38676183  0.75682700  0.34613337  1
  Li  Li13  1  0.61323883  0.75682717  0.65386702  1
  Li  Li14  1  0.24317435  0.61323861  0.65386696  1
  Li  Li15  1  0.38676061  0.24317308  0.65386524  1
  Br  Br16  1  0.09505821  0.25181075  0.22157904  1
  Br  Br17  1  0.74819100  0.09505824  0.22157943  1
  Br  Br18  1  0.90494130  0.25181089  0.77842205  1
  Br  Br19  1  0.75181021  0.40494259  0.27842237  1
  Br  Br20  1  0.59505736  0.24818772  0.72157903  1
  Br  Br21  1  0.24818944  0.59505720  0.27842053  1
  Br  Br22  1  0.40494237  0.24818890  0.27842109  1
  Br  Br23  1  0.59505801  0.75181147  0.27842098  1
  Br  Br24  1  0.75180956  0.59505783  0.72157989  1
  Br  Br25  1  0.40494287  0.75181213  0.72157801  1
  Br  Br26  1  0.24819030  0.40494250  0.72157795  1
  Br  Br27  1  0.90494122  0.74818928  0.22157774  1
  Br  Br28  1  0.25180929  0.90494207  0.22157940  1
  Br  Br29  1  0.74819125  0.90494167  0.77842036  1
  Br  Br30  1  0.09505852  0.74818946  0.77842172  1
  Br  Br31  1  0.25180925  0.09505802  0.77842032  1
