# generated using pymatgen
data_LiBr
_symmetry_space_group_name_H-M   'P 1'
_cell_length_a   11.41027905
_cell_length_b   11.41028528
_cell_length_c   7.97742249
_cell_angle_alpha   89.99760154
_cell_angle_beta   90.00245631
_cell_angle_gamma   120.01782590
_symmetry_Int_Tables_number   1
_chemical_formula_structural   LiBr
_chemical_formula_sum   'Li18 Br18'
_cell_volume   899.30696030
_cell_formula_units_Z   18
loop_
 _symmetry_equiv_pos_site_id
 _symmetry_equiv_pos_as_xyz
  1  'x, y, z'
loop_
 _atom_site_type_symbol
 _atom_site_label
 _atom_site_symmetry_multiplicity
 _atom_site_fract_x
 _atom_site_fract_y
 _atom_site_fract_z
 _atom_site_occupancy
  Li  Li0  1  0.46158154  0.53384812  0.59915900  1
  Li  Li1  1  0.46156008  -0.07229617  0.09901051  1
  Li  Li2  1  0.79947974  0.20506533  0.76569667  1
  Li  Li3  1  0.40549828  0.20048436  0.76570894  1
  Li  Li4  1  0.13278273  0.26113564  0.93249820  1
  Li  Li5  1  0.46618571  -0.07217445  0.59915807  1
  Li  Li6  1  0.40560898  0.20509982  0.26556764  1
  Li  Li7  1  0.79951460  0.59450133  0.26571136  1
  Li  Li8  1  0.07229607  0.53843921  0.59901185  1
  Li  Li9  1  0.07217459  0.53381278  0.09915709  1
  Li  Li10  1  0.79493349  0.20052052  0.26569634  1
  Li  Li11  1  0.79490082  0.59439093  0.76556898  1
  Li  Li12  1  0.73895976  0.87171587  0.93234604  1
  Li  Li13  1  0.73886395  0.86721700  0.43249755  1
  Li  Li14  1  0.46615231  0.53841801  0.09915918  1
  Li  Li15  1  0.13276171  0.87169588  0.43243567  1
  Li  Li16  1  0.12830341  0.86723677  0.93243636  1
  Li  Li17  1  0.12828467  0.26104038  0.43234539  1
  Br  Br18  1  0.54796037  0.09255167  0.83993679  1
  Br  Br19  1  0.54804521  0.45547107  0.34025285  1
  Br  Br20  1  0.24082148  0.11862574  0.00646691  1
  Br  Br21  1  0.87778402  0.75912329  0.00658618  1
  Br  Br22  1  0.57414542  0.78878794  0.17340145  1
  Br  Br23  1  0.90749968  0.45543931  0.84004190  1
  Br  Br24  1  0.87773935  0.11853733  0.50678574  1
  Br  Br25  1  0.24087645  0.12221597  0.50658160  1
  Br  Br26  1  0.54452915  0.45195455  0.84025374  1
  Br  Br27  1  0.54456098  0.09250073  0.34004520  1
  Br  Br28  1  0.88137418  0.75917936  0.50647122  1
  Br  Br29  1  0.88146362  0.12226122  0.00678466  1
  Br  Br30  1  0.21117509  0.78524501  0.17353678  1
  Br  Br31  1  0.21121279  0.42585471  0.67340494  1
  Br  Br32  1  0.90744894  0.45204017  0.33993577  1
  Br  Br33  1  0.57409935  0.78533413  0.67328661  1
  Br  Br34  1  0.21466728  0.42590138  0.17328843  1
  Br  Br35  1  0.21475421  0.78882508  0.67353540  1
