# generated using pymatgen
data_LiI
_symmetry_space_group_name_H-M   'P 1'
_cell_length_a   12.55642718
_cell_length_b   10.36506687
_cell_length_c   9.37078472
_cell_angle_alpha   89.99942270
_cell_angle_beta   90.00001576
_cell_angle_gamma   89.88920365
_symmetry_Int_Tables_number   1
_chemical_formula_structural   LiI
_chemical_formula_sum   'Li16 I16'
_cell_volume   1219.58855285
_cell_formula_units_Z   16
loop_
 _symmetry_equiv_pos_site_id
 _symmetry_equiv_pos_as_xyz
  1  'x, y, z'
loop_
 _atom_site_type_symbol
 _atom_site_label
 _atom_site_symmetry_multiplicity
 _atom_site_fract_x
 _atom_site_fract_y
 _atom_site_fract_z
 _atom_site_occupancy
  Li  Li0  1  0.36272939  0.49958502  0.61528255  1
  Li  Li1  1  0.63725882  0.50038274  0.61530934  1
  Li  Li2  1  0.88730448  0.74893212  0.86476384  1
  Li  Li3  1  0.13729782  0.50043230  0.11526821  1
  Li  Li4  1  0.38729384  0.74900122  0.36485495  1
  Li  Li5  1  0.61268777  0.75096791  0.86485110  1
  Li  Li6  1  0.86275127  0.49964270  0.11532852  1
  Li  Li7  1  0.38729240  0.24895008  0.86478907  1
  Li  Li8  1  0.61269493  0.25101406  0.36478411  1
  Li  Li9  1  0.86272818  -0.00036406  0.61531548  1
  Li  Li10  1  0.13726512  0.00044087  0.61528501  1
  Li  Li11  1  0.88730001  0.24898227  0.36480332  1
  Li  Li12  1  0.11268932  0.75103898  0.36478750  1
  Li  Li13  1  0.11268586  0.25099694  0.86482836  1
  Li  Li14  1  0.36273889  -0.00039382  0.11530642  1
  Li  Li15  1  0.63727581  0.00039245  0.11528584  1
  I  I16  1  0.24915839  0.53937718  0.36593793  1
  I  I17  1  0.75083767  0.46064627  0.36593905  1
  I  I18  1  0.00069845  0.78936277  0.61549327  1
  I  I19  1  0.25083120  0.46061100  0.86591235  1
  I  I20  1  0.50071933  0.78932874  0.11554725  1
  I  I21  1  0.49928965  0.71065780  0.61555815  1
  I  I22  1  0.74915570  0.53930432  0.86595388  1
  I  I23  1  0.50070861  0.28930221  0.61548188  1
  I  I24  1  0.49932334  0.21067585  0.11547868  1
  I  I25  1  0.74916357  0.03935240  0.36593048  1
  I  I26  1  0.25083462  -0.03933305  0.36594073  1
  I  I27  1  0.00071284  0.28936851  0.11554470  1
  I  I28  1  -0.00067731  0.71070906  0.11545277  1
  I  I29  1  -0.00071616  0.21071455  0.61552626  1
  I  I30  1  0.24913736  0.03933122  0.86594210  1
  I  I31  1  0.75082882  -0.03941059  0.86592824  1
