# generated using pymatgen
data_NaI
_symmetry_space_group_name_H-M   'P 1'
_cell_length_a   11.60691447
_cell_length_b   11.60679517
_cell_length_c   17.02821763
_cell_angle_alpha   90.00355304
_cell_angle_beta   90.00051635
_cell_angle_gamma   89.99728330
_symmetry_Int_Tables_number   1
_chemical_formula_structural   NaI
_chemical_formula_sum   'Na16 I16'
_cell_volume   2294.02578480
_cell_formula_units_Z   16
loop_
 _symmetry_equiv_pos_site_id
 _symmetry_equiv_pos_as_xyz
  1  'x, y, z'
loop_
 _atom_site_type_symbol
 _atom_site_label
 _atom_site_symmetry_multiplicity
 _atom_site_fract_x
 _atom_site_fract_y
 _atom_site_fract_z
 _atom_site_occupancy
  Na  Na0  1  0.11066869  0.63688896  0.66681810  1
  Na  Na1  1  0.86310911  0.61066624  0.83318890  1
  Na  Na2  1  0.11064457  0.13688577  0.58318286  1
  Na  Na3  1  0.88935508  0.36311301  0.66681720  1
  Na  Na4  1  0.13689638  0.38934622  0.83317808  1
  Na  Na5  1  0.36310426  0.61065421  0.91682179  1
  Na  Na6  1  0.63689014  0.38933304  0.91681088  1
  Na  Na7  1  0.86310385  0.11065412  0.41682185  1
  Na  Na8  1  0.13689035  0.88933363  0.41681095  1
  Na  Na9  1  0.38935530  0.86311312  0.16681740  1
  Na  Na10  1  0.63689625  0.88934620  0.33317793  1
  Na  Na11  1  0.61066889  0.13688907  0.16681832  1
  Na  Na12  1  0.36310896  0.11066632  0.33318890  1
  Na  Na13  1  0.61064466  0.63688596  0.08318310  1
  Na  Na14  1  0.38933200  0.36311182  0.08318202  1
  Na  Na15  1  0.88933144  0.86311232  0.58318188  1
  I  I16  1  0.65961651  0.37480464  0.09753072  1
  I  I17  1  0.12518162  0.15960579  0.40247554  1
  I  I18  1  0.65961420  0.87478932  0.15247347  1
  I  I19  1  0.34038550  0.62521121  0.09752617  1
  I  I20  1  0.87480297  0.84037649  0.40246284  1
  I  I21  1  0.62519793  0.15962278  0.34753714  1
  I  I22  1  0.37481734  0.84039481  0.34752505  1
  I  I23  1  0.12519787  0.65962267  -0.15246232  1
  I  I24  1  0.87481768  0.34039515  -0.15247501  1
  I  I25  1  0.84038535  0.12521045  0.59752632  1
  I  I26  1  0.37480283  0.34037613  0.90246307  1
  I  I27  1  0.15961638  0.87480487  0.59753107  1
  I  I28  1  0.62518139  0.65960616  0.90247535  1
  I  I29  1  0.15961409  0.37478929  0.65247311  1
  I  I30  1  0.84038431  0.62519547  0.65246853  1
  I  I31  1  0.34038409  0.12519475  0.15246880  1
