# generated using pymatgen
data_LiI
_symmetry_space_group_name_H-M   'P 1'
_cell_length_a   8.51752712
_cell_length_b   8.51763810
_cell_length_c   12.00574889
_cell_angle_alpha   89.99842864
_cell_angle_beta   89.99726589
_cell_angle_gamma   90.00166668
_symmetry_Int_Tables_number   1
_chemical_formula_structural   LiI
_chemical_formula_sum   'Li16 I16'
_cell_volume   871.00763794
_cell_formula_units_Z   16
loop_
 _symmetry_equiv_pos_site_id
 _symmetry_equiv_pos_as_xyz
  1  'x, y, z'
loop_
 _atom_site_type_symbol
 _atom_site_label
 _atom_site_symmetry_multiplicity
 _atom_site_fract_x
 _atom_site_fract_y
 _atom_site_fract_z
 _atom_site_occupancy
  Li  Li0  1  0.25024018  -0.00091341  0.35790732  1
  Li  Li1  1  0.49908644  0.25024334  0.60790886  1
  Li  Li2  1  0.74975717  -0.00091534  0.85790562  1
  Li  Li3  1  0.74975803  0.00091427  0.35790845  1
  Li  Li4  1  0.50091269  0.74975679  0.60790759  1
  Li  Li5  1  0.00091202  0.75024429  0.60790861  1
  Li  Li6  1  -0.00091253  0.24975809  0.60790666  1
  Li  Li7  1  0.50091041  0.25024156  0.10790574  1
  Li  Li8  1  0.49908723  0.74975689  0.10790539  1
  Li  Li9  1  0.24975965  0.50091015  0.85790773  1
  Li  Li10  1  0.00091263  0.24976136  0.10790659  1
  Li  Li11  1  0.75024037  0.49908751  0.85790668  1
  Li  Li12  1  -0.00091404  0.75023766  0.10790581  1
  Li  Li13  1  0.24975906  0.49908856  0.35790586  1
  Li  Li14  1  0.75024253  0.50091341  0.35790614  1
  Li  Li15  1  0.25024425  0.00091325  0.85790642  1
  I  I16  1  -0.00028837  0.74965693  0.35696044  1
  I  I17  1  0.24965162  -0.00028784  0.60696024  1
  I  I18  1  0.00028791  0.74965568  0.85695719  1
  I  I19  1  0.00028451  0.25034481  0.35695847  1
  I  I20  1  0.75034856  0.00028240  0.60695883  1
  I  I21  1  0.25034236  0.49971648  0.60695938  1
  I  I22  1  0.74965980  0.50028846  0.60695788  1
  I  I23  1  0.75034446  -0.00028536  0.10695948  1
  I  I24  1  0.24965539  0.00028881  0.10695800  1
  I  I25  1  0.50028368  0.75034866  0.85695775  1
  I  I26  1  0.25034592  0.50028313  0.10695785  1
  I  I27  1  0.49971049  0.24965175  0.85695976  1
  I  I28  1  0.74965505  0.49971389  0.10695973  1
  I  I29  1  0.50028893  0.24965188  0.35695780  1
  I  I30  1  0.49971488  0.75034810  0.35695955  1
  I  I31  1  -0.00028129  0.25034383  0.85695922  1
