# generated using pymatgen
data_LiBr
_symmetry_space_group_name_H-M   'P 1'
_cell_length_a   6.74670554
_cell_length_b   6.74489248
_cell_length_c   9.53647998
_cell_angle_alpha   90.00000436
_cell_angle_beta   89.99997706
_cell_angle_gamma   120.03791623
_symmetry_Int_Tables_number   1
_chemical_formula_structural   LiBr
_chemical_formula_sum   'Li6 Br6'
_cell_volume   375.68119970
_cell_formula_units_Z   6
loop_
 _symmetry_equiv_pos_site_id
 _symmetry_equiv_pos_as_xyz
  1  'x, y, z'
loop_
 _atom_site_type_symbol
 _atom_site_label
 _atom_site_symmetry_multiplicity
 _atom_site_fract_x
 _atom_site_fract_y
 _atom_site_fract_z
 _atom_site_occupancy
  Li  Li0  1  0.46102290  0.46334165  0.09901108  1
  Li  Li1  1  -0.00224651  0.46099109  0.93252340  1
  Li  Li2  1  0.00224640  0.53900830  0.43252303  1
  Li  Li3  1  0.46343405  0.00225110  0.26595075  1
  Li  Li4  1  0.53656486  -0.00225144  0.76595098  1
  Li  Li5  1  0.53897734  0.53665855  0.59901075  1
  Br  Br6  1  0.16086764  0.58173546  0.18203346  1
  Br  Br7  1  0.57872680  0.16070124  0.01545609  1
  Br  Br8  1  0.42127294  0.83929901  0.51545716  1
  Br  Br9  1  0.58213689  0.42135566  0.34869266  1
  Br  Br10  1  0.41786394  0.57864510  0.84869210  1
  Br  Br11  1  0.83913275  0.41826427  0.68203429  1
