# generated using pymatgen
data_KI
_symmetry_space_group_name_H-M   'P 1'
_cell_length_a   9.64182294
_cell_length_b   9.64182346
_cell_length_c   9.04226823
_cell_angle_alpha   89.99999931
_cell_angle_beta   89.99999904
_cell_angle_gamma   89.99999937
_symmetry_Int_Tables_number   1
_chemical_formula_structural   KI
_chemical_formula_sum   'K8 I8'
_cell_volume   840.61224631
_cell_formula_units_Z   8
loop_
 _symmetry_equiv_pos_site_id
 _symmetry_equiv_pos_as_xyz
  1  'x, y, z'
loop_
 _atom_site_type_symbol
 _atom_site_label
 _atom_site_symmetry_multiplicity
 _atom_site_fract_x
 _atom_site_fract_y
 _atom_site_fract_z
 _atom_site_occupancy
  K  K0  1  0.85295982  0.35446651  0.01876169  1
  K  K1  1  0.85446656  0.35295956  0.51876168  1
  K  K2  1  0.14704017  0.64553350  0.01876168  1
  K  K3  1  0.35446644  0.14704012  0.01876172  1
  K  K4  1  0.64553356  0.85295988  0.01876173  1
  K  K5  1  0.64704040  0.85446652  0.51876170  1
  K  K6  1  0.14553346  0.64704043  0.51876167  1
  K  K7  1  0.35295961  0.14553349  0.51876176  1
  I  I8  1  0.84391425  0.65583619  0.76845449  1
  I  I9  1  0.15583617  0.34391424  0.26845450  1
  I  I10  1  0.15608574  0.34416380  0.76845452  1
  I  I11  1  0.65583615  0.15608579  0.76845449  1
  I  I12  1  0.34416389  0.84391415  0.76845449  1
  I  I13  1  0.65608579  0.15583614  0.26845446  1
  I  I14  1  0.84416384  0.65608577  0.26845448  1
  I  I15  1  0.34391416  0.84416392  0.26845446  1
