# generated using pymatgen
data_LiBr
_symmetry_space_group_name_H-M   'P 1'
_cell_length_a   3.93045893
_cell_length_b   3.93043358
_cell_length_c   10.72535548
_cell_angle_alpha   89.99998922
_cell_angle_beta   90.00000115
_cell_angle_gamma   90.00042921
_symmetry_Int_Tables_number   1
_chemical_formula_structural   LiBr
_chemical_formula_sum   'Li4 Br4'
_cell_volume   165.68966454
_cell_formula_units_Z   4
loop_
 _symmetry_equiv_pos_site_id
 _symmetry_equiv_pos_as_xyz
  1  'x, y, z'
loop_
 _atom_site_type_symbol
 _atom_site_label
 _atom_site_symmetry_multiplicity
 _atom_site_fract_x
 _atom_site_fract_y
 _atom_site_fract_z
 _atom_site_occupancy
  Li  Li0  1  0.50209602  0.99650853  0.10698616  1
  Li  Li1  1  0.99650894  0.49790287  0.85698762  1
  Li  Li2  1  0.49790488  0.00349134  0.60698791  1
  Li  Li3  1  0.00349130  0.50209703  0.35698678  1
  Br  Br4  1  0.49900252  -0.00181092  0.85655896  1
  Br  Br5  1  -0.00181073  0.50099553  0.60655904  1
  Br  Br6  1  0.50099664  0.00181394  0.35655884  1
  Br  Br7  1  0.00181042  0.49900168  0.10655860  1
