# generated using pymatgen
data_LiBr
_symmetry_space_group_name_H-M   'P 1'
_cell_length_a   10.46642007
_cell_length_b   10.46642090
_cell_length_c   11.91525648
_cell_angle_alpha   90.00663456
_cell_angle_beta   89.99337827
_cell_angle_gamma   120.00951396
_symmetry_Int_Tables_number   1
_chemical_formula_structural   LiBr
_chemical_formula_sum   'Li18 Br18'
_cell_volume   1130.28700932
_cell_formula_units_Z   18
loop_
 _symmetry_equiv_pos_site_id
 _symmetry_equiv_pos_as_xyz
  1  'x, y, z'
loop_
 _atom_site_type_symbol
 _atom_site_label
 _atom_site_symmetry_multiplicity
 _atom_site_fract_x
 _atom_site_fract_y
 _atom_site_fract_z
 _atom_site_occupancy
  Li  Li0  1  0.66781363  0.08507389  0.75605699  1
  Li  Li1  1  0.66782206  0.58274658  0.25605840  1
  Li  Li2  1  0.24783727  0.99868052  0.92270130  1
  Li  Li3  1  0.75082828  0.75217231  0.92269304  1
  Li  Li4  1  0.58142323  0.91590436  0.08939930  1
  Li  Li5  1  0.91489897  0.58270916  0.75607019  1
  Li  Li6  1  0.75083680  0.99865660  0.42269229  1
  Li  Li7  1  0.24782722  0.24917125  0.42269322  1
  Li  Li8  1  0.41725274  0.33217757  0.75605793  1
  Li  Li9  1  0.41729103  0.08510119  0.25607012  1
  Li  Li10  1  0.00131980  0.75216326  0.42270106  1
  Li  Li11  1  0.00134327  0.24916268  0.92269272  1
  Li  Li12  1  0.08408910  0.66550820  0.08939776  1
  Li  Li13  1  0.08409550  0.41857673  0.58939935  1
  Li  Li14  1  0.91492675  0.33218695  0.25605703  1
  Li  Li15  1  0.58142260  0.66553124  0.58938870  1
  Li  Li16  1  0.33446908  0.41857810  0.08938827  1
  Li  Li17  1  0.33449221  0.91591032  0.58939818  1
  Br  Br18  1  0.90820561  0.57397147  0.25667901  1
  Br  Br19  1  0.90823220  0.33423911  0.75669935  1
  Br  Br20  1  0.75945664  0.75854099  0.42333254  1
  Br  Br21  1  0.99910636  0.24056810  0.42331965  1
  Br  Br22  1  0.09262408  0.66750999  0.58994472  1
  Br  Br23  1  0.42598795  0.33422531  0.25667226  1
  Br  Br24  1  0.99907596  0.75852147  0.92334330  1
  Br  Br25  1  0.75943110  0.00089300  0.92331898  1
  Br  Br26  1  0.66576149  0.09176852  0.25669836  1
  Br  Br27  1  0.66577410  0.57401074  0.75667292  1
  Br  Br28  1  0.24145872  0.24054342  0.92333172  1
  Br  Br29  1  0.24147947  0.00092445  0.42334417  1
  Br  Br30  1  0.33245360  0.42509849  0.58996344  1
  Br  Br31  1  0.33248934  0.90737531  0.08994553  1
  Br  Br32  1  0.42602878  0.09179423  0.75667971  1
  Br  Br33  1  0.09265523  0.42511242  0.08995223  1
  Br  Br34  1  0.57488762  0.90734512  0.58995183  1
  Br  Br35  1  0.57490220  0.66754694  0.08996429  1
