# generated using pymatgen
data_LiI
_symmetry_space_group_name_H-M   'P 1'
_cell_length_a   10.95733726
_cell_length_b   10.95733190
_cell_length_c   9.25701511
_cell_angle_alpha   89.99993994
_cell_angle_beta   89.99996293
_cell_angle_gamma   89.99997793
_symmetry_Int_Tables_number   1
_chemical_formula_structural   LiI
_chemical_formula_sum   'Li16 I16'
_cell_volume   1111.42668138
_cell_formula_units_Z   16
loop_
 _symmetry_equiv_pos_site_id
 _symmetry_equiv_pos_as_xyz
  1  'x, y, z'
loop_
 _atom_site_type_symbol
 _atom_site_label
 _atom_site_symmetry_multiplicity
 _atom_site_fract_x
 _atom_site_fract_y
 _atom_site_fract_z
 _atom_site_occupancy
  Li  Li0  1  0.33278802  0.49917011  0.05100956  1
  Li  Li1  1  0.99916998  0.33278872  0.30100956  1
  Li  Li2  1  0.66721236  0.49917168  0.55100989  1
  Li  Li3  1  0.66721180  0.50082945  0.05100983  1
  Li  Li4  1  0.00082971  0.66721149  0.30100966  1
  Li  Li5  1  0.50082926  0.83278908  0.30100835  1
  Li  Li6  1  0.49917116  0.16721094  0.30100949  1
  Li  Li7  1  0.00082866  0.33278771  0.80100809  1
  Li  Li8  1  0.99917129  0.66721217  0.80100906  1
  Li  Li9  1  0.16721213  0.00082926  0.55100941  1
  Li  Li10  1  0.50082906  0.16721260  0.80100939  1
  Li  Li11  1  0.83278813  0.99917073  0.55100918  1
  Li  Li12  1  0.49917063  0.83278768  0.80100925  1
  Li  Li13  1  0.16721379  0.99917290  0.05101018  1
  Li  Li14  1  0.83278641  0.00082737  0.05100888  1
  Li  Li15  1  0.33278712  0.50082818  0.55100861  1
  I  I16  1  0.49931145  0.69360349  0.05068485  1
  I  I17  1  0.19360398  0.49931104  0.30068431  1
  I  I18  1  0.50068751  0.69360377  0.55068471  1
  I  I19  1  0.50068847  0.30639623  0.05068521  1
  I  I20  1  0.80639561  0.50068911  0.30068466  1
  I  I21  1  0.30639628  0.99931123  0.30068452  1
  I  I22  1  0.69360440  0.00068816  0.30068383  1
  I  I23  1  0.80639703  0.49931243  0.80068483  1
  I  I24  1  0.19360337  0.50068759  0.80068419  1
  I  I25  1  0.00068866  0.80639652  0.55068439  1
  I  I26  1  0.30639625  0.00068870  0.80068478  1
  I  I27  1  0.99931132  0.19360345  0.55068392  1
  I  I28  1  0.69360340  0.99931151  0.80068437  1
  I  I29  1  0.00068733  0.19360408  0.05068495  1
  I  I30  1  0.99931287  0.80639632  0.05068543  1
  I  I31  1  0.49931257  0.30639629  0.55068458  1
