# generated using pymatgen
data_LiI
_symmetry_space_group_name_H-M   'P 1'
_cell_length_a   4.77199268
_cell_length_b   6.12003443
_cell_length_c   6.78493680
_cell_angle_alpha   90.00001803
_cell_angle_beta   134.68393875
_cell_angle_gamma   90.00001896
_symmetry_Int_Tables_number   1
_chemical_formula_structural   LiI
_chemical_formula_sum   'Li2 I2'
_cell_volume   140.88572116
_cell_formula_units_Z   2
loop_
 _symmetry_equiv_pos_site_id
 _symmetry_equiv_pos_as_xyz
  1  'x, y, z'
loop_
 _atom_site_type_symbol
 _atom_site_label
 _atom_site_symmetry_multiplicity
 _atom_site_fract_x
 _atom_site_fract_y
 _atom_site_fract_z
 _atom_site_occupancy
  Li  Li0  1  0.86986975  0.49606524  0.35289594  1
  Li  Li1  1  0.86986914  0.50393476  0.85289343  1
  I  I2  1  0.36986544  0.26851530  0.85250950  1
  I  I3  1  0.36986473  0.73148470  0.35250927  1
