# generated using pymatgen
data_KBr
_symmetry_space_group_name_H-M   'P 1'
_cell_length_a   6.42690231
_cell_length_b   6.42690992
_cell_length_c   19.38872801
_cell_angle_alpha   90.00000675
_cell_angle_beta   90.00169521
_cell_angle_gamma   90.00000350
_symmetry_Int_Tables_number   1
_chemical_formula_structural   KBr
_chemical_formula_sum   'K8 Br8'
_cell_volume   800.85377911
_cell_formula_units_Z   8
loop_
 _symmetry_equiv_pos_site_id
 _symmetry_equiv_pos_as_xyz
  1  'x, y, z'
loop_
 _atom_site_type_symbol
 _atom_site_label
 _atom_site_symmetry_multiplicity
 _atom_site_fract_x
 _atom_site_fract_y
 _atom_site_fract_z
 _atom_site_occupancy
  K  K0  1  0.24966909  0.24958683  0.48697846  1
  K  K1  1  0.25041210  0.24967098  0.23697860  1
  K  K2  1  0.24958728  0.25033073  0.73697849  1
  K  K3  1  0.75041204  0.74967054  0.73697854  1
  K  K4  1  0.74958763  0.75033153  0.23697842  1
  K  K5  1  0.74966945  0.74958665  -0.01302146  1
  K  K6  1  0.25032963  0.25041138  -0.01302151  1
  K  K7  1  0.75032911  0.75041140  0.48697838  1
  Br  Br8  1  0.25046926  0.74920206  0.49765629  1
  Br  Br9  1  0.75079783  0.25047070  0.24765554  1
  Br  Br10  1  0.74920349  0.24953132  0.74765539  1
  Br  Br11  1  0.25079770  0.75046995  0.74765574  1
  Br  Br12  1  0.24920375  0.74953179  0.24765548  1
  Br  Br13  1  0.75046976  0.24920185  0.99765620  1
  Br  Br14  1  0.24953112  0.75079617  0.99765491  1
  Br  Br15  1  0.74953077  0.25079613  0.49765462  1
