# generated using pymatgen
data_K2O2
_symmetry_space_group_name_H-M   'P 1'
_cell_length_a   6.19019050
_cell_length_b   3.90651093
_cell_length_c   7.13794094
_cell_angle_alpha   89.99987184
_cell_angle_beta   90.00047219
_cell_angle_gamma   89.99890987
_symmetry_Int_Tables_number   1
_chemical_formula_structural   K2O2
_chemical_formula_sum   'K4 O4'
_cell_volume   172.61002209
_cell_formula_units_Z   2
loop_
 _symmetry_equiv_pos_site_id
 _symmetry_equiv_pos_as_xyz
  1  'x, y, z'
loop_
 _atom_site_type_symbol
 _atom_site_label
 _atom_site_symmetry_multiplicity
 _atom_site_fract_x
 _atom_site_fract_y
 _atom_site_fract_z
 _atom_site_occupancy
  K  K0  1  0.49930005  -0.00054225  0.84181740  1
  K  K1  1  -0.00069588  0.50054545  0.84181685  1
  K  K2  1  0.50069514  0.00054396  0.34181944  1
  K  K3  1  0.00070090  0.49945340  0.34182259  1
  O  O4  1  0.84686805  -0.00385321  0.09173264  1
  O  O5  1  0.34687128  0.50386046  0.09173262  1
  O  O6  1  0.15312814  0.00385294  0.59173353  1
  O  O7  1  0.65313232  0.49613925  0.59173126  1
