# generated using pymatgen
data_LiBr
_symmetry_space_group_name_H-M   'P 1'
_cell_length_a   8.33710682
_cell_length_b   4.24319110
_cell_length_c   6.41274171
_cell_angle_alpha   90.00001697
_cell_angle_beta   89.99999056
_cell_angle_gamma   89.99979889
_symmetry_Int_Tables_number   1
_chemical_formula_structural   LiBr
_chemical_formula_sum   'Li4 Br4'
_cell_volume   226.85674960
_cell_formula_units_Z   4
loop_
 _symmetry_equiv_pos_site_id
 _symmetry_equiv_pos_as_xyz
  1  'x, y, z'
loop_
 _atom_site_type_symbol
 _atom_site_label
 _atom_site_symmetry_multiplicity
 _atom_site_fract_x
 _atom_site_fract_y
 _atom_site_fract_z
 _atom_site_occupancy
  Li  Li0  1  0.65318411  0.75329978  0.29790981  1
  Li  Li1  1  0.34681668  0.25329961  0.20208872  1
  Li  Li2  1  0.84681241  0.24670060  0.79790486  1
  Li  Li3  1  0.15318719  0.74670026  0.70209625  1
  Br  Br4  1  0.35692028  0.75316688  0.41709449  1
  Br  Br5  1  0.64307980  0.25316726  0.08290497  1
  Br  Br6  1  0.14307797  0.24683286  -0.08290384  1
  Br  Br7  1  0.85692155  0.74683275  0.58290474  1
