# generated using pymatgen
data_LiBr
_symmetry_space_group_name_H-M   'P 1'
_cell_length_a   11.59739729
_cell_length_b   11.59746798
_cell_length_c   8.51242416
_cell_angle_alpha   90.01214438
_cell_angle_beta   89.98776738
_cell_angle_gamma   120.01496874
_symmetry_Int_Tables_number   1
_chemical_formula_structural   LiBr
_chemical_formula_sum   'Li18 Br18'
_cell_volume   991.38436367
_cell_formula_units_Z   18
loop_
 _symmetry_equiv_pos_site_id
 _symmetry_equiv_pos_as_xyz
  1  'x, y, z'
loop_
 _atom_site_type_symbol
 _atom_site_label
 _atom_site_symmetry_multiplicity
 _atom_site_fract_x
 _atom_site_fract_y
 _atom_site_fract_z
 _atom_site_occupancy
  Li  Li0  1  0.69440321  0.62244654  0.72850216  1
  Li  Li1  1  0.69442985  0.07198524  0.22856698  1
  Li  Li2  1  0.71086493  0.97218533  0.89534764  1
  Li  Li3  1  0.26123079  0.28894847  0.89529219  1
  Li  Li4  1  0.04420511  0.40524534  0.06191526  1
  Li  Li5  1  0.37776884  0.07207025  0.72845648  1
  Li  Li6  1  0.26128139  0.97219953  0.39537070  1
  Li  Li7  1  0.71105454  0.73876925  0.39528723  1
  Li  Li8  1  0.92800768  0.30556670  0.72856778  1
  Li  Li9  1  0.92793327  0.62223389  0.22845332  1
  Li  Li10  1  0.02781510  0.28913802  0.39535251  1
  Li  Li11  1  0.02780183  0.73871751  0.89536901  1
  Li  Li12  1  0.59483206  0.63885943  0.06195825  1
  Li  Li13  1  0.59475641  0.95579000  0.56191522  1
  Li  Li14  1  0.37755214  0.30560089  0.22850313  1
  Li  Li15  1  0.04402983  0.63891975  0.56194951  1
  Li  Li16  1  0.36107932  0.95597025  0.06195155  1
  Li  Li17  1  0.36114026  0.40517183  0.56196077  1
  Br  Br18  1  0.80600656  0.59096103  0.48598931  1
  Br  Br19  1  0.80602893  0.21508257  0.98613269  1
  Br  Br20  1  0.74234751  0.86059884  0.65285940  1
  Br  Br21  1  0.11817233  0.25763048  0.65282247  1
  Br  Br22  1  0.07565505  0.54848072  0.81949633  1
  Br  Br23  1  0.40909526  0.21512691  0.48595985  1
  Br  Br24  1  0.11817203  0.86055424  0.15296194  1
  Br  Br25  1  0.74237384  0.88182926  0.15281667  1
  Br  Br26  1  0.78491393  0.19396686  0.48612952  1
  Br  Br27  1  0.78487519  0.59089971  0.98595377  1
  Br  Br28  1  0.13940055  0.25765033  0.15286336  1
  Br  Br29  1  0.13944739  0.88183396  0.65296004  1
  Br  Br30  1  0.45155690  0.52719618  0.81962159  1
  Br  Br31  1  0.45151370  -0.07565724  0.31949865  1
  Br  Br32  1  0.40903885  0.19399396  0.98599426  1
  Br  Br33  1  0.07567218  0.52726071  0.31953490  1
  Br  Br34  1  0.47274261  -0.07566932  0.81953419  1
  Br  Br35  1  0.47280063  0.54844257  0.31961886  1
