# generated using pymatgen
data_LiBr
_symmetry_space_group_name_H-M   'P 1'
_cell_length_a   13.84703236
_cell_length_b   13.84702897
_cell_length_c   13.84703675
_cell_angle_alpha   90.00005263
_cell_angle_beta   90.00001948
_cell_angle_gamma   90.00003458
_symmetry_Int_Tables_number   1
_chemical_formula_structural   LiBr
_chemical_formula_sum   'Li48 Br48'
_cell_volume   2655.03440192
_cell_formula_units_Z   48
loop_
 _symmetry_equiv_pos_site_id
 _symmetry_equiv_pos_as_xyz
  1  'x, y, z'
loop_
 _atom_site_type_symbol
 _atom_site_label
 _atom_site_symmetry_multiplicity
 _atom_site_fract_x
 _atom_site_fract_y
 _atom_site_fract_z
 _atom_site_occupancy
  Li  Li0  1  0.84615514  0.66470165  0.95548026  1
  Li  Li1  1  0.54451979  0.34615513  0.66470256  1
  Li  Li2  1  0.45547979  0.15384564  0.66470345  1
  Li  Li3  1  0.54452041  0.65384522  0.83529778  1
  Li  Li4  1  0.45547983  0.84615455  0.83529752  1
  Li  Li5  1  0.66470311  0.54452012  0.34615508  1
  Li  Li6  1  0.33529699  0.95548004  0.34615478  1
  Li  Li7  1  0.84615424  0.33529700  0.54452029  1
  Li  Li8  1  0.34615542  0.16470261  0.45548050  1
  Li  Li9  1  0.04451964  0.84615515  0.16470296  1
  Li  Li10  1  0.04452001  0.65384515  0.66470268  1
  Li  Li11  1  0.83529707  0.95548042  0.15384434  1
  Li  Li12  1  0.04452015  0.34615502  0.83529712  1
  Li  Li13  1  0.95548002  0.84615532  0.66470231  1
  Li  Li14  1  0.95548016  0.15384506  0.83529680  1
  Li  Li15  1  0.16470290  0.54452019  0.15384544  1
  Li  Li16  1  0.83529693  0.04452019  0.34615468  1
  Li  Li17  1  0.33529728  0.54452043  0.84615431  1
  Li  Li18  1  0.66470259  0.95547983  0.84615489  1
  Li  Li19  1  0.65384502  0.33529711  0.45548011  1
  Li  Li20  1  0.15384537  0.33529750  0.04451999  1
  Li  Li21  1  0.66470321  0.45547928  0.15384610  1
  Li  Li22  1  0.33529732  0.04452005  0.15384501  1
  Li  Li23  1  0.34615553  0.66470225  0.54451951  1
  Li  Li24  1  0.34615442  0.33529731  0.95547960  1
  Li  Li25  1  0.65384530  0.16470291  0.95548013  1
  Li  Li26  1  0.16470291  0.45547950  0.34615412  1
  Li  Li27  1  0.15384479  0.83529744  0.95548015  1
  Li  Li28  1  0.15384488  0.16470274  0.54451965  1
  Li  Li29  1  0.95548007  0.65384500  0.16470290  1
  Li  Li30  1  0.04451952  0.15384481  0.33529762  1
  Li  Li31  1  0.95548045  0.34615518  0.33529788  1
  Li  Li32  1  0.16470297  0.04451999  0.84615501  1
  Li  Li33  1  0.83529720  0.45547950  0.84615381  1
  Li  Li34  1  0.16470280  0.95547997  0.65384506  1
  Li  Li35  1  0.83529750  0.54452016  0.65384512  1
  Li  Li36  1  0.65384537  0.66470214  0.04452003  1
  Li  Li37  1  0.34615423  0.83529688  0.04452030  1
  Li  Li38  1  0.84615568  0.16470298  0.04451922  1
  Li  Li39  1  0.84615471  0.83529765  0.45548009  1
  Li  Li40  1  0.15384507  0.66470226  0.45548036  1
  Li  Li41  1  0.65384499  0.83529784  0.54452008  1
  Li  Li42  1  0.45548029  0.65384484  0.33529701  1
  Li  Li43  1  0.54451981  0.84615516  0.33529703  1
  Li  Li44  1  0.45548030  0.34615538  0.16470194  1
  Li  Li45  1  0.54451969  0.15384508  0.16470246  1
  Li  Li46  1  0.33529683  0.45547969  0.65384569  1
  Li  Li47  1  0.66470245  0.04452028  0.65384561  1
  Br  Br48  1  0.31418305  0.56046291  0.38771228  1
  Br  Br49  1  0.11228737  0.81418286  0.56046315  1
  Br  Br50  1  0.88771234  0.68581754  0.56046341  1
  Br  Br51  1  0.11228748  0.18581719  0.93953660  1
  Br  Br52  1  0.88771298  0.31418316  0.93953665  1
  Br  Br53  1  0.56046338  0.11228757  0.81418308  1
  Br  Br54  1  0.43953667  0.38771256  0.81418269  1
  Br  Br55  1  0.31418289  0.43953707  0.11228712  1
  Br  Br56  1  0.81418315  0.06046307  0.88771250  1
  Br  Br57  1  0.61228725  0.31418330  0.06046281  1
  Br  Br58  1  0.61228692  0.18581715  0.56046309  1
  Br  Br59  1  0.93953688  0.38771249  0.68581677  1
  Br  Br60  1  0.61228767  0.81418237  0.93953672  1
  Br  Br61  1  0.38771271  0.31418334  0.56046292  1
  Br  Br62  1  0.38771273  0.68581691  0.93953719  1
  Br  Br63  1  0.06046326  0.11228712  0.68581678  1
  Br  Br64  1  0.93953693  0.61228708  0.81418285  1
  Br  Br65  1  0.43953651  0.11228729  0.31418284  1
  Br  Br66  1  0.56046351  0.38771247  0.31418282  1
  Br  Br67  1  0.18581717  0.43953714  0.88771241  1
  Br  Br68  1  0.68581713  0.43953688  0.61228759  1
  Br  Br69  1  0.56046313  0.88771262  0.68581729  1
  Br  Br70  1  0.43953670  0.61228749  0.68581743  1
  Br  Br71  1  0.81418325  0.56046244  0.11228766  1
  Br  Br72  1  0.81418298  0.43953685  0.38771308  1
  Br  Br73  1  0.18581686  0.06046304  0.38771294  1
  Br  Br74  1  0.06046322  0.88771274  0.81418293  1
  Br  Br75  1  0.68581665  0.93953737  0.38771281  1
  Br  Br76  1  0.68581685  0.06046319  0.11228680  1
  Br  Br77  1  0.38771242  0.18581725  0.06046304  1
  Br  Br78  1  0.61228750  0.68581730  0.43953667  1
  Br  Br79  1  0.38771269  0.81418283  0.43953658  1
  Br  Br80  1  0.06046300  0.61228719  0.31418310  1
  Br  Br81  1  0.93953668  0.88771325  0.31418311  1
  Br  Br82  1  0.06046347  0.38771252  0.18581725  1
  Br  Br83  1  0.93953652  0.11228761  0.18581703  1
  Br  Br84  1  0.18581703  0.56046297  0.61228729  1
  Br  Br85  1  0.81418283  0.93953728  0.61228741  1
  Br  Br86  1  0.31418313  0.06046321  0.61228747  1
  Br  Br87  1  0.31418298  0.93953674  0.88771318  1
  Br  Br88  1  0.68581722  0.56046266  0.88771274  1
  Br  Br89  1  0.18581670  0.93953716  0.11228762  1
  Br  Br90  1  0.88771264  0.18581687  0.43953718  1
  Br  Br91  1  0.11228734  0.31418313  0.43953705  1
  Br  Br92  1  0.88771245  0.81418253  0.06046355  1
  Br  Br93  1  0.11228744  0.68581719  0.06046338  1
  Br  Br94  1  0.43953680  0.88771268  0.18581675  1
  Br  Br95  1  0.56046335  0.61228684  0.18581707  1
