# generated using pymatgen
data_LiI
_symmetry_space_group_name_H-M   'P 1'
_cell_length_a   4.25523639
_cell_length_b   4.25802636
_cell_length_c   12.01584703
_cell_angle_alpha   89.99999995
_cell_angle_beta   89.99998893
_cell_angle_gamma   90.02306537
_symmetry_Int_Tables_number   1
_chemical_formula_structural   LiI
_chemical_formula_sum   'Li4 I4'
_cell_volume   217.71401767
_cell_formula_units_Z   4
loop_
 _symmetry_equiv_pos_site_id
 _symmetry_equiv_pos_as_xyz
  1  'x, y, z'
loop_
 _atom_site_type_symbol
 _atom_site_label
 _atom_site_symmetry_multiplicity
 _atom_site_fract_x
 _atom_site_fract_y
 _atom_site_fract_z
 _atom_site_occupancy
  Li  Li0  1  0.00164770  -0.50450502  0.26837898  1
  Li  Li1  1  -0.49829233  0.00312269  0.01836947  1
  Li  Li2  1  -0.00164866  0.50450413  0.76838037  1
  Li  Li3  1  0.49829247  -0.00312164  0.51837149  1
  I  I4  1  -0.00024753  0.49883155  0.51712054  1
  I  I5  1  0.50123966  -0.00143069  0.26711955  1
  I  I6  1  0.00024705  0.50116718  0.01712273  1
  I  I7  1  0.49876163  0.00143180  0.76711871  1
