# generated using pymatgen
data_KI
_symmetry_space_group_name_H-M   'P 1'
_cell_length_a   8.72208649
_cell_length_b   8.68650509
_cell_length_c   8.69543646
_cell_angle_alpha   89.98839526
_cell_angle_beta   89.99673545
_cell_angle_gamma   89.99929708
_symmetry_Int_Tables_number   1
_chemical_formula_structural   KI
_chemical_formula_sum   'K8 I8'
_cell_volume   658.80493498
_cell_formula_units_Z   8
loop_
 _symmetry_equiv_pos_site_id
 _symmetry_equiv_pos_as_xyz
  1  'x, y, z'
loop_
 _atom_site_type_symbol
 _atom_site_label
 _atom_site_symmetry_multiplicity
 _atom_site_fract_x
 _atom_site_fract_y
 _atom_site_fract_z
 _atom_site_occupancy
  K  K0  1  0.25065618  0.49960873  0.74973980  1
  K  K1  1  0.25056730  0.50049232  0.24982564  1
  K  K2  1  0.75065058  0.00039701  0.25025933  1
  K  K3  1  0.24942439  0.00049835  0.24982841  1
  K  K4  1  0.74943261  0.49950772  0.75017437  1
  K  K5  1  0.24934951  -0.00039703  0.74974068  1
  K  K6  1  0.75057571  -0.00049831  0.75017159  1
  K  K7  1  0.74934371  0.50039123  0.25026019  1
  I  I8  1  0.48234783  0.75025846  -0.00002875  1
  I  I9  1  0.48236258  0.24976794  0.50002056  1
  I  I10  1  0.98234709  0.74974018  0.00003854  1
  I  I11  1  0.01763833  0.74976638  0.50002763  1
  I  I12  1  0.51763746  0.75023217  0.49997945  1
  I  I13  1  0.01765288  0.25025970  -0.00003855  1
  I  I14  1  0.98236171  0.25023375  0.49997237  1
  I  I15  1  0.51765213  0.24974141  0.00002874  1
