# generated using pymatgen
data_LiI
_symmetry_space_group_name_H-M   'P 1'
_cell_length_a   16.07017711
_cell_length_b   16.05378978
_cell_length_c   5.66373987
_cell_angle_alpha   90.17865204
_cell_angle_beta   89.91506897
_cell_angle_gamma   120.12261536
_symmetry_Int_Tables_number   1
_chemical_formula_structural   LiI
_chemical_formula_sum   'Li18 I18'
_cell_volume   1263.84009903
_cell_formula_units_Z   18
loop_
 _symmetry_equiv_pos_site_id
 _symmetry_equiv_pos_as_xyz
  1  'x, y, z'
loop_
 _atom_site_type_symbol
 _atom_site_label
 _atom_site_symmetry_multiplicity
 _atom_site_fract_x
 _atom_site_fract_y
 _atom_site_fract_z
 _atom_site_occupancy
  Li  Li0  1  0.99889738  0.15699273  0.25157874  1
  Li  Li1  1  0.50896109  0.33165654  0.08398399  1
  Li  Li2  1  0.00110394  0.84300591  0.74842178  1
  Li  Li3  1  0.15787428  0.00145207  0.24969227  1
  Li  Li4  1  0.82264357  0.49140453  0.08419661  1
  Li  Li5  1  0.15681779  0.15827445  0.75031279  1
  Li  Li6  1  0.50971054  0.17470253  0.58254798  1
  Li  Li7  1  0.84318100  0.84172425  0.24968429  1
  Li  Li8  1  0.84212335  0.99854744  0.75030539  1
  Li  Li9  1  0.49028874  0.82529515  0.41745563  1
  Li  Li10  1  0.17735488  0.50859508  0.91580374  1
  Li  Li11  1  0.82446544  0.33538452  0.58271475  1
  Li  Li12  1  0.17553636  0.66461505  0.41728426  1
  Li  Li13  1  0.49104047  0.66834534  0.91601694  1
  Li  Li14  1  0.66496884  0.49029891  0.58466774  1
  Li  Li15  1  0.33503247  0.50970094  0.41533268  1
  Li  Li16  1  0.66775709  0.17734643  0.08205906  1
  Li  Li17  1  0.33224084  0.82265649  0.91794130  1
  I  I18  1  0.85318457  0.52251534  0.58415892  1
  I  I19  1  0.99833481  0.18715825  0.75179712  1
  I  I20  1  0.14681556  0.47748383  0.41584131  1
  I  I21  1  0.66829553  0.14664064  0.58164888  1
  I  I22  1  0.18871652  0.00208183  0.74943153  1
  I  I23  1  0.52199969  0.66894818  0.41609547  1
  I  I24  1  0.14452377  0.66424807  -0.08284781  1
  I  I25  1  0.47800293  0.33105201  0.58390584  1
  I  I26  1  0.33170461  0.85335978  0.41835194  1
  I  I27  1  0.85547546  0.33575188  0.08284748  1
  I  I28  1  0.81128357  0.99791790  0.25056650  1
  I  I29  1  0.33538599  0.47929040  -0.08511961  1
  I  I30  1  0.66461478  0.52071229  0.08512004  1
  I  I31  1  0.00166483  0.81284061  0.24820221  1
  I  I32  1  0.52090537  0.85616420  -0.08268228  1
  I  I33  1  0.47909212  0.14383544  0.08268448  1
  I  I34  1  0.81294860  0.81083175  0.74943094  1
  I  I35  1  0.18705321  0.18916924  0.25056711  1
