# generated using pymatgen
data_LiBr
_symmetry_space_group_name_H-M   'P 1'
_cell_length_a   5.53070297
_cell_length_b   5.52022226
_cell_length_c   5.45337372
_cell_angle_alpha   90.00000026
_cell_angle_beta   90.29451845
_cell_angle_gamma   89.99999940
_symmetry_Int_Tables_number   1
_chemical_formula_structural   LiBr
_chemical_formula_sum   'Li4 Br4'
_cell_volume   166.49316990
_cell_formula_units_Z   4
loop_
 _symmetry_equiv_pos_site_id
 _symmetry_equiv_pos_as_xyz
  1  'x, y, z'
loop_
 _atom_site_type_symbol
 _atom_site_label
 _atom_site_symmetry_multiplicity
 _atom_site_fract_x
 _atom_site_fract_y
 _atom_site_fract_z
 _atom_site_occupancy
  Li  Li0  1  0.01102165  0.75161389  0.35808402  1
  Li  Li1  1  0.51101779  0.25160826  0.35806459  1
  Li  Li2  1  0.01102207  0.24838482  0.85808857  1
  Li  Li3  1  0.51101662  0.74839330  0.85806249  1
  Br  Br4  1  0.01240353  0.74925785  0.85773078  1
  Br  Br5  1  0.51240413  0.24925861  0.85772773  1
  Br  Br6  1  0.01240404  0.25074177  0.35773185  1
  Br  Br7  1  0.51240379  0.75074150  0.35772686  1
