# generated using pymatgen
data_LiBr
_symmetry_space_group_name_H-M   'P 1'
_cell_length_a   7.90906351
_cell_length_b   7.90918689
_cell_length_c   6.52020252
_cell_angle_alpha   90.00020869
_cell_angle_beta   90.00019503
_cell_angle_gamma   89.99961019
_symmetry_Int_Tables_number   1
_chemical_formula_structural   LiBr
_chemical_formula_sum   'Li8 Br8'
_cell_volume   407.86645348
_cell_formula_units_Z   8
loop_
 _symmetry_equiv_pos_site_id
 _symmetry_equiv_pos_as_xyz
  1  'x, y, z'
loop_
 _atom_site_type_symbol
 _atom_site_label
 _atom_site_symmetry_multiplicity
 _atom_site_fract_x
 _atom_site_fract_y
 _atom_site_fract_z
 _atom_site_occupancy
  Li  Li0  1  0.25019847  0.74936798  0.00004689  1
  Li  Li1  1  0.25063346  0.25019839  -0.00004837  1
  Li  Li2  1  0.75019714  0.24937151  0.49995465  1
  Li  Li3  1  0.74936970  0.74980229  -0.00004966  1
  Li  Li4  1  0.24979974  0.75063372  0.49995396  1
  Li  Li5  1  0.74980390  0.25062780  0.00004511  1
  Li  Li6  1  0.75062959  0.75019674  0.50004937  1
  Li  Li7  1  0.24936783  0.24980265  0.50004835  1
  Br  Br8  1  -0.00000470  0.75010829  0.75041780  1
  Br  Br9  1  0.24989222  -0.00000535  0.24958172  1
  Br  Br10  1  0.49999572  0.25010751  0.74958173  1
  Br  Br11  1  0.75010892  0.00000241  0.24958291  1
  Br  Br12  1  0.50000414  0.74989097  0.74958250  1
  Br  Br13  1  0.00000561  0.24989175  0.75041775  1
  Br  Br14  1  0.74989079  0.49999673  0.25041693  1
  Br  Br15  1  0.25010749  0.50000659  0.25041835  1
