# generated using pymatgen
data_LiBr
_symmetry_space_group_name_H-M   'P 1'
_cell_length_a   7.84618506
_cell_length_b   7.84644326
_cell_length_c   10.78285576
_cell_angle_alpha   90.00026783
_cell_angle_beta   89.99982708
_cell_angle_gamma   90.00214585
_symmetry_Int_Tables_number   1
_chemical_formula_structural   LiBr
_chemical_formula_sum   'Li16 Br16'
_cell_volume   663.84269622
_cell_formula_units_Z   16
loop_
 _symmetry_equiv_pos_site_id
 _symmetry_equiv_pos_as_xyz
  1  'x, y, z'
loop_
 _atom_site_type_symbol
 _atom_site_label
 _atom_site_symmetry_multiplicity
 _atom_site_fract_x
 _atom_site_fract_y
 _atom_site_fract_z
 _atom_site_occupancy
  Li  Li0  1  0.24940971  -0.00038665  0.48586731  1
  Li  Li1  1  0.49960846  0.24940112  0.73586363  1
  Li  Li2  1  0.75059530  -0.00038240  0.98584625  1
  Li  Li3  1  0.75057169  0.00038651  0.48587973  1
  Li  Li4  1  0.50038797  0.75059146  0.73586618  1
  Li  Li5  1  0.00037921  0.74942121  0.73586410  1
  Li  Li6  1  -0.00038078  0.25057317  0.73586738  1
  Li  Li7  1  0.50036845  0.24942309  0.23585875  1
  Li  Li8  1  0.49961441  0.75057088  0.23585609  1
  Li  Li9  1  0.25057129  0.50038443  0.98587738  1
  Li  Li10  1  0.00039410  0.25059643  0.23585971  1
  Li  Li11  1  0.74941257  0.49961250  0.98586723  1
  Li  Li12  1  -0.00037910  0.74939911  0.23585990  1
  Li  Li13  1  0.25059450  0.49961747  0.48584764  1
  Li  Li14  1  0.74941938  0.50037753  0.48585671  1
  Li  Li15  1  0.24941260  0.00038523  0.98585822  1
  Br  Br16  1  0.75036514  0.49917474  0.73560122  1
  Br  Br17  1  -0.00082080  0.75036033  -0.01439741  1
  Br  Br18  1  0.24962986  0.49917970  0.23560108  1
  Br  Br19  1  0.24964279  0.50081647  0.73560032  1
  Br  Br20  1  0.00085469  0.24964697  -0.01440690  1
  Br  Br21  1  0.50080895  0.25037650  -0.01439430  1
  Br  Br22  1  0.49917610  0.74964333  -0.01440344  1
  Br  Br23  1  0.00081396  0.75036479  0.48560151  1
  Br  Br24  1  -0.00082491  0.24964512  0.48559949  1
  Br  Br25  1  0.74965926  0.00082624  0.23558919  1
  Br  Br26  1  0.50083860  0.74965864  0.48560012  1
  Br  Br27  1  0.25036956  -0.00083901  0.23560424  1
  Br  Br28  1  0.49917587  0.25036472  0.48559833  1
  Br  Br29  1  0.74963355  -0.00081679  0.73560196  1
  Br  Br30  1  0.25035842  0.00082137  0.73559873  1
  Br  Br31  1  0.75033922  0.50080579  0.23559542  1
