# generated using pymatgen
data_LiBr
_symmetry_space_group_name_H-M   'P 1'
_cell_length_a   11.51990532
_cell_length_b   11.51990818
_cell_length_c   7.94250924
_cell_angle_alpha   90.00146328
_cell_angle_beta   89.99860407
_cell_angle_gamma   120.00626023
_symmetry_Int_Tables_number   1
_chemical_formula_structural   LiBr
_chemical_formula_sum   'Li18 Br18'
_cell_volume   912.76481006
_cell_formula_units_Z   18
loop_
 _symmetry_equiv_pos_site_id
 _symmetry_equiv_pos_as_xyz
  1  'x, y, z'
loop_
 _atom_site_type_symbol
 _atom_site_label
 _atom_site_symmetry_multiplicity
 _atom_site_fract_x
 _atom_site_fract_y
 _atom_site_fract_z
 _atom_site_occupancy
  Li  Li0  1  0.53645356  0.46304434  0.11779402  1
  Li  Li1  1  0.53645231  0.07341079  0.61778517  1
  Li  Li2  1  0.87028288  0.13020359  0.28445925  1
  Li  Li3  1  0.25991332  0.12971774  0.28445183  1
  Li  Li4  1  0.20361218  0.40674673  0.45114949  1
  Li  Li5  1  0.53695256  0.07341473  0.11779056  1
  Li  Li6  1  0.25991807  0.13020253  0.78444770  1
  Li  Li7  1  0.87028189  0.74008687  0.78445488  1
  Li  Li8  1  0.92658990  0.46354830  0.11778445  1
  Li  Li9  1  0.92658435  0.46304672  0.61778727  1
  Li  Li10  1  0.86979578  0.12971829  0.78446017  1
  Li  Li11  1  0.86979925  0.74008353  0.28444931  1
  Li  Li12  1  0.59325667  0.79687124  0.45114259  1
  Li  Li13  1  0.59325232  0.79638735  0.95114822  1
  Li  Li14  1  0.53695613  0.46354622  0.61779260  1
  Li  Li15  1  0.20361512  0.79687087  0.95114739  1
  Li  Li16  1  0.20312920  0.79638393  0.45114780  1
  Li  Li17  1  0.20312895  0.40674463  0.95114423  1
  Br  Br18  1  0.09228372  0.54651210  0.87891418  1
  Br  Br19  1  0.09228140  0.54576519  0.37891667  1
  Br  Br20  1  0.78682084  0.57438876  0.04559836  1
  Br  Br21  1  0.78757119  0.21317904  0.04561920  1
  Br  Br22  1  0.12015984  0.87909856  0.21227599  1
  Br  Br23  1  0.45348828  0.54576550  0.87892969  1
  Br  Br24  1  0.78757189  0.57439152  0.54560002  1
  Br  Br25  1  0.78682080  0.21242854  0.54561800  1
  Br  Br26  1  0.45423390  0.90771839  0.87891842  1
  Br  Br27  1  0.45423393  0.54651154  0.37892983  1
  Br  Br28  1  0.42561134  0.21317899  0.54559669  1
  Br  Br29  1  0.42560874  0.21242843  0.04559983  1
  Br  Br30  1  0.12089945  0.24105343  0.21227006  1
  Br  Br31  1  0.12090064  0.87984093  0.71227591  1
  Br  Br32  1  0.45348758  0.90771520  0.37891540  1
  Br  Br33  1  0.12015516  0.24105002  0.71226744  1
  Br  Br34  1  0.75895014  0.87984438  0.21226736  1
  Br  Br35  1  0.75894672  0.87910105  0.71227088  1
