# generated using pymatgen
data_LiBr
_symmetry_space_group_name_H-M   'P 1'
_cell_length_a   7.64562122
_cell_length_b   4.56684067
_cell_length_c   5.58704398
_cell_angle_alpha   89.99998859
_cell_angle_beta   89.99997213
_cell_angle_gamma   90.00002569
_symmetry_Int_Tables_number   1
_chemical_formula_structural   LiBr
_chemical_formula_sum   'Li4 Br4'
_cell_volume   195.07909346
_cell_formula_units_Z   4
loop_
 _symmetry_equiv_pos_site_id
 _symmetry_equiv_pos_as_xyz
  1  'x, y, z'
loop_
 _atom_site_type_symbol
 _atom_site_label
 _atom_site_symmetry_multiplicity
 _atom_site_fract_x
 _atom_site_fract_y
 _atom_site_fract_z
 _atom_site_occupancy
  Li  Li0  1  0.41795808  0.74975219  0.81976805  1
  Li  Li1  1  0.91791406  0.25024601  0.81976339  1
  Li  Li2  1  0.58209037  0.25024581  0.31977243  1
  Li  Li3  1  0.08203724  0.74975288  0.31977526  1
  Br  Br4  1  0.42051807  0.75000919  0.31645916  1
  Br  Br5  1  -0.07948770  0.24999231  0.31645812  1
  Br  Br6  1  0.57949048  0.24999222  0.81645932  1
  Br  Br7  1  0.07947941  0.75000939  0.81645828  1
