# generated using pymatgen
data_KI
_symmetry_space_group_name_H-M   'P 1'
_cell_length_a   10.16672500
_cell_length_b   7.18221320
_cell_length_c   5.08574221
_cell_angle_alpha   89.99998778
_cell_angle_beta   89.99998398
_cell_angle_gamma   89.99999092
_symmetry_Int_Tables_number   1
_chemical_formula_structural   KI
_chemical_formula_sum   'K4 I4'
_cell_volume   371.35879320
_cell_formula_units_Z   4
loop_
 _symmetry_equiv_pos_site_id
 _symmetry_equiv_pos_as_xyz
  1  'x, y, z'
loop_
 _atom_site_type_symbol
 _atom_site_label
 _atom_site_symmetry_multiplicity
 _atom_site_fract_x
 _atom_site_fract_y
 _atom_site_fract_z
 _atom_site_occupancy
  K  K0  1  0.37273600  0.74778879  0.48101271  1
  K  K1  1  0.87273596  0.75221120  0.48101297  1
  K  K2  1  0.62726400  0.25221121  0.98101293  1
  K  K3  1  0.12726404  0.24778880  0.98101266  1
  I  I4  1  0.62266964  0.75156457  0.98096915  1
  I  I5  1  0.12266967  0.74843541  0.98096939  1
  I  I6  1  0.37733036  0.24843543  0.48096929  1
  I  I7  1  0.87733033  0.25156458  0.48096905  1
