# generated using pymatgen
data_LiI
_symmetry_space_group_name_H-M   'P 1'
_cell_length_a   12.51891352
_cell_length_b   12.51895727
_cell_length_c   9.01810828
_cell_angle_alpha   89.99649253
_cell_angle_beta   90.00332874
_cell_angle_gamma   120.00404321
_symmetry_Int_Tables_number   1
_chemical_formula_structural   LiI
_chemical_formula_sum   'Li18 I18'
_cell_volume   1223.94859260
_cell_formula_units_Z   18
loop_
 _symmetry_equiv_pos_site_id
 _symmetry_equiv_pos_as_xyz
  1  'x, y, z'
loop_
 _atom_site_type_symbol
 _atom_site_label
 _atom_site_symmetry_multiplicity
 _atom_site_fract_x
 _atom_site_fract_y
 _atom_site_fract_z
 _atom_site_occupancy
  Li  Li0  1  0.27191014  0.33325133  0.05539392  1
  Li  Li1  1  0.27190101  -0.06135596  0.55538598  1
  Li  Li2  1  -0.00009108  0.39472883  0.22204879  1
  Li  Li3  1  0.39485151  0.00010668  0.22204416  1
  Li  Li4  1  0.33333473  0.27181583  0.38873453  1
  Li  Li5  1  0.66671073  -0.06138055  0.05541075  1
  Li  Li6  1  0.39481775  0.39474805  0.72203632  1
  Li  Li7  1  -0.00010805  0.60514645  0.72204747  1
  Li  Li8  1  0.06136325  0.72809819  0.05539036  1
  Li  Li9  1  0.06138647  0.33329451  0.55541993  1
  Li  Li10  1  0.60526747  0.00007655  0.72204349  1
  Li  Li11  1  0.60526027  0.60519174  0.22203499  1
  Li  Li12  1  0.72819592  0.06150878  0.38872469  1
  Li  Li13  1  0.72819214  0.66666681  0.88873582  1
  Li  Li14  1  0.66675546  0.72809213  0.55538600  1
  Li  Li15  1  0.33329573  0.06148077  0.88873937  1
  Li  Li16  1  -0.06148370  0.66670273  0.38874289  1
  Li  Li17  1  -0.06150828  0.27180094  0.88873049  1
  I  I18  1  0.08866805  0.56008005  0.45914945  1
  I  I19  1  0.08864587  0.52858358  -0.04083951  1
  I  I20  1  0.77310221  0.57785290  0.62591018  1
  I  I21  1  0.80476480  0.22687552  0.62594901  1
  I  I22  1  0.10653930  0.86204086  0.79267464  1
  I  I23  1  0.43994187  0.52858932  0.45918363  1
  I  I24  1  0.80473157  0.57788685  0.12593048  1
  I  I25  1  0.77311367  0.19523668  0.12594437  1
  I  I26  1  0.47141443  0.91135643  0.45915281  1
  I  I27  1  0.47141508  0.56005884  -0.04081041  1
  I  I28  1  0.42213364  0.22688722  0.12590762  1
  I  I29  1  0.42210772  0.19526724  0.62592627  1
  I  I30  1  0.13792265  0.24448672  0.79265471  1
  I  I31  1  0.13795531  0.89346015  0.29267572  1
  I  I32  1  0.43991667  0.91133144  -0.04086106  1
  I  I33  1  0.10654531  0.24449532  0.29265590  1
  I  I34  1  0.75551247  0.89345454  0.79264567  1
  I  I35  1  0.75551792  0.86208250  0.29264231  1
