# generated using pymatgen
data_KI
_symmetry_space_group_name_H-M   'P 1'
_cell_length_a   9.98245407
_cell_length_b   6.37414833
_cell_length_c   7.12554650
_cell_angle_alpha   90.00001674
_cell_angle_beta   90.00007778
_cell_angle_gamma   90.00001360
_symmetry_Int_Tables_number   1
_chemical_formula_structural   KI
_chemical_formula_sum   'K4 I4'
_cell_volume   453.39597969
_cell_formula_units_Z   4
loop_
 _symmetry_equiv_pos_site_id
 _symmetry_equiv_pos_as_xyz
  1  'x, y, z'
loop_
 _atom_site_type_symbol
 _atom_site_label
 _atom_site_symmetry_multiplicity
 _atom_site_fract_x
 _atom_site_fract_y
 _atom_site_fract_z
 _atom_site_occupancy
  K  K0  1  0.57847729  0.75008378  0.62201870  1
  K  K1  1  0.07847706  0.24991649  0.62202049  1
  K  K2  1  0.42152282  0.24991494  0.12202019  1
  K  K3  1  0.92152281  0.75008476  0.12202176  1
  I  I4  1  0.42989123  0.24997919  0.62193669  1
  I  I5  1  0.92989143  0.75002122  0.62193816  1
  I  I6  1  0.57010879  0.75001964  0.12192651  1
  I  I7  1  0.07010857  0.24997999  0.12192810  1
