# generated using pymatgen
data_LiBr
_symmetry_space_group_name_H-M   'P 1'
_cell_length_a   13.83908762
_cell_length_b   13.83920043
_cell_length_c   13.83886145
_cell_angle_alpha   89.99931906
_cell_angle_beta   90.00143479
_cell_angle_gamma   90.00122280
_symmetry_Int_Tables_number   1
_chemical_formula_structural   LiBr
_chemical_formula_sum   'Li48 Br48'
_cell_volume   2650.44514124
_cell_formula_units_Z   48
loop_
 _symmetry_equiv_pos_site_id
 _symmetry_equiv_pos_as_xyz
  1  'x, y, z'
loop_
 _atom_site_type_symbol
 _atom_site_label
 _atom_site_symmetry_multiplicity
 _atom_site_fract_x
 _atom_site_fract_y
 _atom_site_fract_z
 _atom_site_occupancy
  Li  Li0  1  0.79685003  0.91285577  0.59402719  1
  Li  Li1  1  0.90595112  0.29683981  0.91282901  1
  Li  Li2  1  0.09407198  0.20315573  0.91283537  1
  Li  Li3  1  0.90594924  0.70315748  0.58712654  1
  Li  Li4  1  0.09401896  0.79684668  0.58715795  1
  Li  Li5  1  0.91288174  0.90597667  0.29688517  1
  Li  Li6  1  0.08715115  0.59405295  0.29684568  1
  Li  Li7  1  0.79682899  0.08715774  0.90594339  1
  Li  Li8  1  0.29686526  0.41285080  0.09405449  1
  Li  Li9  1  0.40596179  0.79684963  0.41284127  1
  Li  Li10  1  0.40595386  0.70314961  0.91285374  1
  Li  Li11  1  0.58715134  0.59405294  0.20312874  1
  Li  Li12  1  0.40592932  0.29682323  0.58719285  1
  Li  Li13  1  0.59402920  0.79683074  0.91285893  1
  Li  Li14  1  0.59405147  0.20312964  0.58714415  1
  Li  Li15  1  0.41286346  0.90596505  0.20314009  1
  Li  Li16  1  0.58716984  0.40595529  0.29684710  1
  Li  Li17  1  0.08713406  0.90596764  0.79683888  1
  Li  Li18  1  0.91282115  0.59407827  0.79682694  1
  Li  Li19  1  0.70315138  0.08715377  0.09403913  1
  Li  Li20  1  0.20315399  0.08717194  0.40595338  1
  Li  Li21  1  0.91280862  0.09405908  0.20316050  1
  Li  Li22  1  0.08715412  0.40595758  0.20315671  1
  Li  Li23  1  0.29685414  0.91285212  0.90593186  1
  Li  Li24  1  0.29686703  0.08711876  0.59404026  1
  Li  Li25  1  0.70317442  0.41283094  0.59404703  1
  Li  Li26  1  0.41283236  0.09406018  0.29683837  1
  Li  Li27  1  0.20315002  0.58716054  0.59405431  1
  Li  Li28  1  0.20314100  0.41286237  0.90596869  1
  Li  Li29  1  0.59405662  0.70316967  0.41284056  1
  Li  Li30  1  0.40593897  0.20313668  0.08715066  1
  Li  Li31  1  0.59404023  0.29686624  0.08715038  1
  Li  Li32  1  0.41285793  0.40597524  0.79684898  1
  Li  Li33  1  0.58714709  0.09404438  0.79685436  1
  Li  Li34  1  0.41283984  0.59406024  0.70316965  1
  Li  Li35  1  0.58716427  0.90594758  0.70315985  1
  Li  Li36  1  0.70315689  0.91283375  0.40595424  1
  Li  Li37  1  0.29684821  0.58716161  0.40595227  1
  Li  Li38  1  0.79685305  0.41286049  0.40594795  1
  Li  Li39  1  0.79685384  0.58713448  0.09404209  1
  Li  Li40  1  0.20317612  0.91281155  0.09404496  1
  Li  Li41  1  0.70315424  0.58715291  0.90597925  1
  Li  Li42  1  0.09402133  0.70314729  0.08711521  1
  Li  Li43  1  0.90592326  0.79681753  0.08720217  1
  Li  Li44  1  0.09402327  0.29685478  0.41285254  1
  Li  Li45  1  0.90593391  0.20312207  0.41285812  1
  Li  Li46  1  0.08716989  0.09405538  0.70315058  1
  Li  Li47  1  0.91287796  0.40599107  0.70315854  1
  Br  Br48  1  0.63690896  0.80950609  0.56252920  1
  Br  Br49  1  0.93745528  0.13689545  0.80951262  1
  Br  Br50  1  0.06257848  0.36305970  0.80949604  1
  Br  Br51  1  0.93744952  0.86307039  0.69050861  1
  Br  Br52  1  0.06253070  0.63688901  0.69048181  1
  Br  Br53  1  0.80949584  0.93747129  0.13693851  1
  Br  Br54  1  0.19048379  0.56254975  0.13689844  1
  Br  Br55  1  0.63690084  0.19049187  0.93742184  1
  Br  Br56  1  0.13692687  0.30947991  0.06254226  1
  Br  Br57  1  0.43743381  0.63690587  0.30951263  1
  Br  Br58  1  0.43745015  0.86307551  0.80948742  1
  Br  Br59  1  0.69051606  0.56253739  0.36306822  1
  Br  Br60  1  0.43743201  0.13689847  0.69050243  1
  Br  Br61  1  0.56252976  0.63688899  0.80951881  1
  Br  Br62  1  0.56256037  0.36306522  0.69049192  1
  Br  Br63  1  0.30952015  0.93745283  0.36309713  1
  Br  Br64  1  0.69046079  0.43743337  0.13688456  1
  Br  Br65  1  0.19047533  0.93744234  0.63690614  1
  Br  Br66  1  0.80945058  0.56253970  0.63692218  1
  Br  Br67  1  0.86307518  0.19049923  0.06255069  1
  Br  Br68  1  0.36311051  0.19050318  0.43746381  1
  Br  Br69  1  0.80949554  0.06257441  0.36311937  1
  Br  Br70  1  0.19048875  0.43746534  0.36308611  1
  Br  Br71  1  0.13694626  0.80949426  0.93743259  1
  Br  Br72  1  0.13693003  0.19050498  0.56254833  1
  Br  Br73  1  0.86312461  0.30953091  0.56255703  1
  Br  Br74  1  0.30949082  0.06255221  0.13690837  1
  Br  Br75  1  0.36307719  0.69051648  0.56254226  1
  Br  Br76  1  0.36310246  0.30952595  0.93746216  1
  Br  Br77  1  0.56255335  0.86307721  0.30949011  1
  Br  Br78  1  0.43744214  0.36307997  0.19051553  1
  Br  Br79  1  0.56253786  0.13689863  0.19048213  1
  Br  Br80  1  0.30951493  0.43746717  0.63691030  1
  Br  Br81  1  0.69048175  0.06258167  0.63692186  1
  Br  Br82  1  0.30947735  0.56255832  0.86308364  1
  Br  Br83  1  0.69049560  0.93746296  0.86310037  1
  Br  Br84  1  0.86310492  0.80950757  0.43743528  1
  Br  Br85  1  0.13691558  0.69050214  0.43743832  1
  Br  Br86  1  0.63694761  0.30950473  0.43743741  1
  Br  Br87  1  0.63692111  0.69050104  0.06256708  1
  Br  Br88  1  0.36311383  0.80951919  0.06256465  1
  Br  Br89  1  0.86310311  0.69052121  0.93749446  1
  Br  Br90  1  0.06255672  0.86306906  0.19046572  1
  Br  Br91  1  0.93743971  0.63690618  0.19052533  1
  Br  Br92  1  0.06252159  0.13687999  0.30953040  1
  Br  Br93  1  0.93744614  0.36306213  0.30947483  1
  Br  Br94  1  0.19051900  0.06256290  0.86307482  1
  Br  Br95  1  0.80954912  0.43745199  0.86309610  1
