# generated using pymatgen
data_LiBr
_symmetry_space_group_name_H-M   'P 1'
_cell_length_a   12.19400720
_cell_length_b   12.19401010
_cell_length_c   8.52391449
_cell_angle_alpha   90.00479930
_cell_angle_beta   89.99519114
_cell_angle_gamma   120.00617750
_symmetry_Int_Tables_number   1
_chemical_formula_structural   LiBr
_chemical_formula_sum   'Li18 Br18'
_cell_volume   1097.57870944
_cell_formula_units_Z   18
loop_
 _symmetry_equiv_pos_site_id
 _symmetry_equiv_pos_as_xyz
  1  'x, y, z'
loop_
 _atom_site_type_symbol
 _atom_site_label
 _atom_site_symmetry_multiplicity
 _atom_site_fract_x
 _atom_site_fract_y
 _atom_site_fract_z
 _atom_site_occupancy
  Li  Li0  1  0.92193899  0.29274770  0.72977443  1
  Li  Li1  1  0.92193403  0.62915643  0.22972564  1
  Li  Li2  1  0.04054658  0.74469210  0.89643093  1
  Li  Li3  1  0.70410552  0.95943902  0.89643465  1
  Li  Li4  1  0.37388872  0.96251721  0.06302409  1
  Li  Li5  1  0.70726396  0.62922192  0.72977069  1
  Li  Li6  1  0.70417773  0.74469289  0.39639435  1
  Li  Li7  1  0.04055847  0.29589413  0.39643290  1
  Li  Li8  1  0.37084525  0.07807002  0.72972542  1
  Li  Li9  1  0.37077643  0.29273560  0.22976980  1
  Li  Li10  1  0.25530791  0.95945335  0.39643201  1
  Li  Li11  1  0.25530159  0.29582170  0.89639356  1
  Li  Li12  1  0.03754594  0.41139354  0.06298795  1
  Li  Li13  1  0.03748434  0.62611077  0.56302468  1
  Li  Li14  1  0.70725361  0.07806377  0.22977565  1
  Li  Li15  1  0.37388085  0.41140143  0.56302767  1
  Li  Li16  1  0.58860151  0.62612369  0.06302588  1
  Li  Li17  1  0.58860475  0.96245286  0.56298892  1
  Br  Br18  1  0.67027915  0.85268242  0.16084988  1
  Br  Br19  1  0.67034987  0.81763454  0.66081415  1
  Br  Br20  1  0.48066210  0.99639102  0.32744997  1
  Br  Br21  1  0.51569772  0.51934461  0.32743607  1
  Br  Br22  1  0.81397274  0.15095671  0.49417097  1
  Br  Br23  1  0.14731307  0.81762661  0.16083343  1
  Br  Br24  1  0.51569170  0.99632402  0.82741193  1
  Br  Br25  1  0.48065514  0.48430215  0.82743872  1
  Br  Br26  1  0.18236373  0.32964936  0.16081399  1
  Br  Br27  1  0.18237387  0.85268735  0.66083370  1
  Br  Br28  1  0.00360932  0.51933792  0.82745068  1
  Br  Br29  1  0.00367553  0.48430724  0.32741145  1
  Br  Br30  1  0.84903548  0.66297850  0.49414381  1
  Br  Br31  1  0.84904285  0.18602613  -0.00583132  1
  Br  Br32  1  0.14731901  0.32972295  0.66084562  1
  Br  Br33  1  0.81397554  0.66305057  -0.00582087  1
  Br  Br34  1  0.33694754  0.18602440  0.49417822  1
  Br  Br35  1  0.33701944  0.15096536  -0.00585795  1
