# generated using pymatgen
data_LiBr
_symmetry_space_group_name_H-M   'P 1'
_cell_length_a   7.51578757
_cell_length_b   13.79018883
_cell_length_c   4.27754431
_cell_angle_alpha   89.99994066
_cell_angle_beta   89.99999009
_cell_angle_gamma   89.99962458
_symmetry_Int_Tables_number   1
_chemical_formula_structural   LiBr
_chemical_formula_sum   'Li8 Br8'
_cell_volume   443.34235789
_cell_formula_units_Z   8
loop_
 _symmetry_equiv_pos_site_id
 _symmetry_equiv_pos_as_xyz
  1  'x, y, z'
loop_
 _atom_site_type_symbol
 _atom_site_label
 _atom_site_symmetry_multiplicity
 _atom_site_fract_x
 _atom_site_fract_y
 _atom_site_fract_z
 _atom_site_occupancy
  Li  Li0  1  0.16563576  0.57721710  0.99565957  1
  Li  Li1  1  0.16564756  0.92278282  0.99565579  1
  Li  Li2  1  0.66564049  0.92278302  0.50434198  1
  Li  Li3  1  0.33435882  0.42278316  0.49565883  1
  Li  Li4  1  0.83435876  0.07721673  0.00434100  1
  Li  Li5  1  0.33436088  0.07721680  0.49565706  1
  Li  Li6  1  0.66563950  0.57721690  0.50434241  1
  Li  Li7  1  0.83436150  0.42278336  0.00434229  1
  Br  Br8  1  0.16563791  0.11050850  0.99623237  1
  Br  Br9  1  0.16563885  0.38949145  0.99623493  1
  Br  Br10  1  0.66563943  0.38949189  0.50376742  1
  Br  Br11  1  0.33436263  0.88949161  0.49623442  1
  Br  Br12  1  0.83435876  0.61050884  0.00376620  1
  Br  Br13  1  0.33435825  0.61050820  0.49623453  1
  Br  Br14  1  0.66563809  0.11050824  0.50376486  1
  Br  Br15  1  0.83436281  0.88949137  0.00376633  1
