# generated using pymatgen
data_KBr
_symmetry_space_group_name_H-M   'P 1'
_cell_length_a   6.69331419
_cell_length_b   6.70348512
_cell_length_c   6.71708639
_cell_angle_alpha   89.99999450
_cell_angle_beta   89.99986981
_cell_angle_gamma   90.00003012
_symmetry_Int_Tables_number   1
_chemical_formula_structural   KBr
_chemical_formula_sum   'K4 Br4'
_cell_volume   301.38580589
_cell_formula_units_Z   4
loop_
 _symmetry_equiv_pos_site_id
 _symmetry_equiv_pos_as_xyz
  1  'x, y, z'
loop_
 _atom_site_type_symbol
 _atom_site_label
 _atom_site_symmetry_multiplicity
 _atom_site_fract_x
 _atom_site_fract_y
 _atom_site_fract_z
 _atom_site_occupancy
  K  K0  1  0.49936192  0.24948873  0.09570327  1
  K  K1  1  -0.00063887  0.75050995  0.09570276  1
  K  K2  1  0.50063625  0.75051216  0.59570331  1
  K  K3  1  0.00063772  0.24948917  0.59570597  1
  Br  Br4  1  0.49954037  0.75029694  0.09650808  1
  Br  Br5  1  -0.00045895  0.24970181  0.09651198  1
  Br  Br6  1  0.50046134  0.24970380  0.59651165  1
  Br  Br7  1  0.00046021  0.75029745  0.59651009  1
