# generated using pymatgen
data_LiI
_symmetry_space_group_name_H-M   'P 1'
_cell_length_a   11.83361039
_cell_length_b   11.83362597
_cell_length_c   11.80978180
_cell_angle_alpha   90.01627181
_cell_angle_beta   89.98393764
_cell_angle_gamma   119.99990595
_symmetry_Int_Tables_number   1
_chemical_formula_structural   LiI
_chemical_formula_sum   'Li18 I18'
_cell_volume   1432.21427681
_cell_formula_units_Z   18
loop_
 _symmetry_equiv_pos_site_id
 _symmetry_equiv_pos_as_xyz
  1  'x, y, z'
loop_
 _atom_site_type_symbol
 _atom_site_label
 _atom_site_symmetry_multiplicity
 _atom_site_fract_x
 _atom_site_fract_y
 _atom_site_fract_z
 _atom_site_occupancy
  Li  Li0  1  0.24818209  0.24860823  0.92452259  1
  Li  Li1  1  0.24817968  -0.00041667  0.42452764  1
  Li  Li2  1  0.08472597  0.41848777  0.09119068  1
  Li  Li3  1  0.33379189  -0.08470864  0.09119061  1
  Li  Li4  1  0.41804259  0.33287149  0.25786090  1
  Li  Li5  1  0.75137506  -0.00045853  0.92452872  1
  Li  Li6  1  0.33374838  0.41847871  0.59119081  1
  Li  Li7  1  0.08470922  0.66620711  0.59119236  1
  Li  Li8  1  0.00041571  0.75181851  0.92452854  1
  Li  Li9  1  0.00046626  0.24862250  0.42453039  1
  Li  Li10  1  0.58151238  -0.08472353  0.59119244  1
  Li  Li11  1  0.58151627  0.66625318  0.09119751  1
  Li  Li12  1  0.66708112  0.08514816  0.25786499  1
  Li  Li13  1  0.66712854  0.58195796  0.75786325  1
  Li  Li14  1  0.75139000  0.75181868  0.42452629  1
  Li  Li15  1  0.41805521  0.08515368  0.75785807  1
  Li  Li16  1  0.91484859  0.58194495  0.25785891  1
  Li  Li17  1  0.91485183  0.33291894  0.75785973  1
  I  I18  1  0.22562398  0.22514832  0.42490680  1
  I  I19  1  0.22564542  0.00051715  0.92491975  1
  I  I20  1  0.10818370  0.44103879  0.59157239  1
  I  I21  1  0.33291491  0.89185963  0.59157107  1
  I  I22  1  0.44147487  0.33375507  0.75823848  1
  I  I23  1  0.77481044  0.00042854  0.42490439  1
  I  I24  1  0.33281067  0.44102102  0.09158424  1
  I  I25  1  0.10814244  0.66708842  0.09157230  1
  I  I26  1  -0.00051880  0.77435493  0.42492367  1
  I  I27  1  -0.00042556  0.22519013  0.92490418  1
  I  I28  1  0.55896561  0.89180782  0.09156992  1
  I  I29  1  0.55898152  0.66719286  0.59158941  1
  I  I30  1  0.66614317  0.10768353  0.75825730  1
  I  I31  1  0.66623861  0.55852111  0.25823899  1
  I  I32  1  0.77486038  0.77436523  0.92490122  1
  I  I33  1  0.44152480  0.10771124  0.25823478  1
  I  I34  1  0.89229271  0.55847781  0.75823730  1
  I  I35  1  0.89231037  0.33385591  0.25825009  1
