# generated using pymatgen
data_LiI
_symmetry_space_group_name_H-M   'P 1'
_cell_length_a   13.52609334
_cell_length_b   13.52608644
_cell_length_c   13.52608852
_cell_angle_alpha   89.99993596
_cell_angle_beta   89.99994588
_cell_angle_gamma   90.00003260
_symmetry_Int_Tables_number   1
_chemical_formula_structural   LiI
_chemical_formula_sum   'Li24 I24'
_cell_volume   2474.66698304
_cell_formula_units_Z   24
loop_
 _symmetry_equiv_pos_site_id
 _symmetry_equiv_pos_as_xyz
  1  'x, y, z'
loop_
 _atom_site_type_symbol
 _atom_site_label
 _atom_site_symmetry_multiplicity
 _atom_site_fract_x
 _atom_site_fract_y
 _atom_site_fract_z
 _atom_site_occupancy
  Li  Li0  1  0.42775378  0.74239781  0.33405932  1
  Li  Li1  1  0.92775494  0.75760130  0.66593966  1
  Li  Li2  1  0.83406037  0.42775387  0.75760031  1
  Li  Li3  1  0.83405961  0.07224592  0.25760187  1
  Li  Li4  1  0.24239838  0.16594109  0.57224519  1
  Li  Li5  1  0.33406147  0.42775425  0.74239953  1
  Li  Li6  1  0.66594085  0.92775460  0.75760153  1
  Li  Li7  1  0.16593831  0.57224711  0.24239960  1
  Li  Li8  1  0.25760251  0.83406030  0.07224495  1
  Li  Li9  1  0.74239814  0.33405930  0.42775460  1
  Li  Li10  1  0.75760182  0.66593850  0.92775381  1
  Li  Li11  1  0.57224482  0.24239721  0.16594153  1
  Li  Li12  1  0.07224626  0.25760088  0.83406150  1
  Li  Li13  1  0.66594060  0.57224482  0.25760136  1
  Li  Li14  1  0.33405850  0.07224542  0.24239875  1
  Li  Li15  1  0.16594100  0.92775472  0.74239847  1
  Li  Li16  1  0.75760042  0.83405914  0.42775390  1
  Li  Li17  1  0.74239721  0.16594085  0.92775506  1
  Li  Li18  1  0.25760167  0.66593929  0.57224641  1
  Li  Li19  1  0.24239993  0.33406239  0.07224645  1
  Li  Li20  1  0.42775535  0.75760193  0.83405926  1
  Li  Li21  1  0.92775405  0.74239956  0.16593843  1
  Li  Li22  1  0.57224526  0.25760149  0.66593961  1
  Li  Li23  1  0.07224476  0.24239913  0.33405937  1
  I  I24  1  0.88716290  0.20285185  0.39778848  1
  I  I25  1  0.38716325  0.29714935  0.60221167  1
  I  I26  1  0.89778722  0.88716301  0.29714792  1
  I  I27  1  0.89778910  0.61283604  0.79714813  1
  I  I28  1  0.70285090  0.10221128  0.11283724  1
  I  I29  1  0.39778846  0.88716367  0.20285183  1
  I  I30  1  0.60221075  0.38716259  0.29714904  1
  I  I31  1  0.10221212  0.11283714  0.70285181  1
  I  I32  1  0.79714821  0.89778753  0.61283623  1
  I  I33  1  0.20285230  0.39778867  0.88716337  1
  I  I34  1  0.29714785  0.60221134  0.38716376  1
  I  I35  1  0.11283695  0.70285290  0.10221158  1
  I  I36  1  0.61283772  0.79714822  0.89778875  1
  I  I37  1  0.60221128  0.11283658  0.79714812  1
  I  I38  1  0.39778926  0.61283664  0.70285197  1
  I  I39  1  0.10221153  0.38716439  0.20285119  1
  I  I40  1  0.29715004  0.89778898  0.88716288  1
  I  I41  1  0.20285048  0.10221217  0.38716314  1
  I  I42  1  0.79714954  0.60221039  0.11283671  1
  I  I43  1  0.70285106  0.39778869  0.61283628  1
  I  I44  1  0.88716304  0.29714809  0.89778795  1
  I  I45  1  0.38716254  0.20285111  0.10221146  1
  I  I46  1  0.11283761  0.79714816  0.60221216  1
  I  I47  1  0.61283590  0.70285033  0.39778785  1
