# generated using pymatgen
data_LiBr
_symmetry_space_group_name_H-M   'P 1'
_cell_length_a   4.24864057
_cell_length_b   4.24868281
_cell_length_c   9.58533744
_cell_angle_alpha   89.99948864
_cell_angle_beta   90.00027662
_cell_angle_gamma   119.99978713
_symmetry_Int_Tables_number   1
_chemical_formula_structural   LiBr
_chemical_formula_sum   'Li3 Br3'
_cell_volume   149.84535016
_cell_formula_units_Z   3
loop_
 _symmetry_equiv_pos_site_id
 _symmetry_equiv_pos_as_xyz
  1  'x, y, z'
loop_
 _atom_site_type_symbol
 _atom_site_label
 _atom_site_symmetry_multiplicity
 _atom_site_fract_x
 _atom_site_fract_y
 _atom_site_fract_z
 _atom_site_occupancy
  Li  Li0  1  -0.00329198  0.66653110  0.29842456  1
  Li  Li1  1  0.33346456  0.33017738  0.96509251  1
  Li  Li2  1  0.66982722  0.00329859  0.63175235  1
  Br  Br3  1  0.33008732  0.33310347  0.22682227  1
  Br  Br4  1  0.66689427  0.99697965  0.89348975  1
  Br  Br5  1  0.00301862  0.66990980  0.56015740  1
