# generated using pymatgen
data_LiBr
_symmetry_space_group_name_H-M   'P 1'
_cell_length_a   12.04336290
_cell_length_b   12.04335432
_cell_length_c   7.06139418
_cell_angle_alpha   90.00030042
_cell_angle_beta   89.99969743
_cell_angle_gamma   120.00310105
_symmetry_Int_Tables_number   1
_chemical_formula_structural   LiBr
_chemical_formula_sum   'Li18 Br18'
_cell_volume   886.95738036
_cell_formula_units_Z   18
loop_
 _symmetry_equiv_pos_site_id
 _symmetry_equiv_pos_as_xyz
  1  'x, y, z'
loop_
 _atom_site_type_symbol
 _atom_site_label
 _atom_site_symmetry_multiplicity
 _atom_site_fract_x
 _atom_site_fract_y
 _atom_site_fract_z
 _atom_site_occupancy
  Li  Li0  1  0.50292116  0.62686903  0.89957051  1
  Li  Li1  1  0.50292793  0.87605068  0.39954615  1
  Li  Li2  1  0.70667706  0.16425634  0.06845055  1
  Li  Li3  1  0.45757109  0.29331575  0.06843628  1
  Li  Li4  1  0.04006875  0.20935065  0.23565337  1
  Li  Li5  1  0.37313067  0.87603520  0.89956729  1
  Li  Li6  1  0.45755169  0.16422593  0.56841544  1
  Li  Li7  1  0.70668468  0.54242907  0.56843537  1
  Li  Li8  1  0.12394921  0.49706947  0.89954059  1
  Li  Li9  1  0.12396329  0.62686749  0.39956435  1
  Li  Li10  1  0.83574218  0.29332209  0.56845210  1
  Li  Li11  1  0.83577301  0.54244880  0.06841494  1
  Li  Li12  1  0.79063556  0.83070547  0.23561926  1
  Li  Li13  1  0.79065103  0.95993190  0.73565467  1
  Li  Li14  1  0.37313295  0.49708141  0.39957165  1
  Li  Li15  1  0.04006870  0.83071635  0.73563408  1
  Li  Li16  1  0.16928323  0.95993129  0.23563307  1
  Li  Li17  1  0.16929445  0.20936332  0.73561874  1
  Br  Br18  1  -0.03877764  0.79184717  0.07681067  1
  Br  Br19  1  -0.03877761  0.16939353  0.57684330  1
  Br  Br20  1  0.54139368  0.70526818  0.24131940  1
  Br  Br21  1  0.16387395  0.45859991  0.24131662  1
  Br  Br22  1  0.87459578  0.50244827  0.40959776  1
  Br  Br23  1  0.20816209  0.16938693  0.07681167  1
  Br  Br24  1  0.16385579  0.70526244  0.74133898  1
  Br  Br25  1  0.54140096  0.83612754  0.74131977  1
  Br  Br26  1  0.83060710  0.03877796  0.07684428  1
  Br  Br27  1  0.83061313  0.79183816  0.57681234  1
  Br  Br28  1  0.29473324  0.45860635  0.74131840  1
  Br  Br29  1  0.29473706  0.83614432  0.24134046  1
  Br  Br30  1  0.49754350  0.37213631  0.40961905  1
  Br  Br31  1  0.49755110  0.12540363  0.90959883  1
  Br  Br32  1  0.20815297  0.03877709  0.57680977  1
  Br  Br33  1  0.87459112  0.37214647  0.90960908  1
  Br  Br34  1  0.62785333  0.12540872  0.40960884  1
  Br  Br35  1  0.62786380  0.50245678  0.90961836  1
