# generated using pymatgen
data_KBr
_symmetry_space_group_name_H-M   'P 1'
_cell_length_a   8.24369913
_cell_length_b   4.76299108
_cell_length_c   8.16669210
_cell_angle_alpha   89.99999816
_cell_angle_beta   109.78195084
_cell_angle_gamma   89.99999912
_symmetry_Int_Tables_number   1
_chemical_formula_structural   KBr
_chemical_formula_sum   'K4 Br4'
_cell_volume   301.73931882
_cell_formula_units_Z   4
loop_
 _symmetry_equiv_pos_site_id
 _symmetry_equiv_pos_as_xyz
  1  'x, y, z'
loop_
 _atom_site_type_symbol
 _atom_site_label
 _atom_site_symmetry_multiplicity
 _atom_site_fract_x
 _atom_site_fract_y
 _atom_site_fract_z
 _atom_site_occupancy
  K  K0  1  0.49460234  0.75048514  0.55169494  1
  K  K1  1  -0.00539770  0.25048508  0.55169492  1
  K  K2  1  0.49460229  0.24951486  0.05169490  1
  K  K3  1  -0.00539767  0.74951492  0.05169496  1
  Br  Br4  1  0.24492031  0.24963202  0.30154505  1
  Br  Br5  1  0.74492027  0.74963195  0.30154501  1
  Br  Br6  1  0.24492028  0.75036799  0.80154501  1
  Br  Br7  1  0.74492032  0.25036803  0.80154505  1
