# generated using pymatgen
data_LiBr
_symmetry_space_group_name_H-M   'P 1'
_cell_length_a   3.89156322
_cell_length_b   3.89156508
_cell_length_c   11.01337315
_cell_angle_alpha   89.99971537
_cell_angle_beta   89.99964721
_cell_angle_gamma   90.00006925
_symmetry_Int_Tables_number   1
_chemical_formula_structural   LiBr
_chemical_formula_sum   'Li4 Br4'
_cell_volume   166.78951362
_cell_formula_units_Z   4
loop_
 _symmetry_equiv_pos_site_id
 _symmetry_equiv_pos_as_xyz
  1  'x, y, z'
loop_
 _atom_site_type_symbol
 _atom_site_label
 _atom_site_symmetry_multiplicity
 _atom_site_fract_x
 _atom_site_fract_y
 _atom_site_fract_z
 _atom_site_occupancy
  Li  Li0  1  0.49978046  0.00040069  0.68952277  1
  Li  Li1  1  0.00037100  0.50020120  0.43951950  1
  Li  Li2  1  0.50021459  0.99961050  0.18952129  1
  Li  Li3  1  0.99962996  0.49978593  0.93952182  1
  Br  Br4  1  -0.00079416  0.49972398  0.69102394  1
  Br  Br5  1  0.49971291  0.00079034  0.44102271  1
  Br  Br6  1  0.00079544  0.50027895  0.19102375  1
  Br  Br7  1  0.50028979  -0.00079159  0.94102452  1
