# generated using pymatgen
data_LiBr
_symmetry_space_group_name_H-M   'P 1'
_cell_length_a   3.98409581
_cell_length_b   3.98409364
_cell_length_c   10.39594195
_cell_angle_alpha   90.00012235
_cell_angle_beta   89.99992167
_cell_angle_gamma   90.00008336
_symmetry_Int_Tables_number   1
_chemical_formula_structural   LiBr
_chemical_formula_sum   'Li4 Br4'
_cell_volume   165.01489875
_cell_formula_units_Z   4
loop_
 _symmetry_equiv_pos_site_id
 _symmetry_equiv_pos_as_xyz
  1  'x, y, z'
loop_
 _atom_site_type_symbol
 _atom_site_label
 _atom_site_symmetry_multiplicity
 _atom_site_fract_x
 _atom_site_fract_y
 _atom_site_fract_z
 _atom_site_occupancy
  Li  Li0  1  0.50172741  -0.00627242  0.43671698  1
  Li  Li1  1  -0.00627717  0.49825469  0.18671400  1
  Li  Li2  1  0.49827627  0.00630512  0.93671578  1
  Li  Li3  1  0.00628107  0.50172599  0.68671442  1
  Br  Br4  1  0.00010812  0.50229930  0.93683282  1
  Br  Br5  1  0.50229989  -0.00011541  0.68683215  1
  Br  Br6  1  -0.00011441  0.49769717  0.43683190  1
  Br  Br7  1  0.49769881  0.00010557  0.18683475  1
