# generated using pymatgen
data_KI
_symmetry_space_group_name_H-M   'P 1'
_cell_length_a   8.63157665
_cell_length_b   4.96331767
_cell_length_c   8.68769871
_cell_angle_alpha   89.99978929
_cell_angle_beta   90.00001394
_cell_angle_gamma   89.99996908
_symmetry_Int_Tables_number   1
_chemical_formula_structural   KI
_chemical_formula_sum   'K4 I4'
_cell_volume   372.19193210
_cell_formula_units_Z   4
loop_
 _symmetry_equiv_pos_site_id
 _symmetry_equiv_pos_as_xyz
  1  'x, y, z'
loop_
 _atom_site_type_symbol
 _atom_site_label
 _atom_site_symmetry_multiplicity
 _atom_site_fract_x
 _atom_site_fract_y
 _atom_site_fract_z
 _atom_site_occupancy
  K  K0  1  0.00075119  0.00006597  0.11326291  1
  K  K1  1  0.50075123  0.49993386  0.11326284  1
  K  K2  1  -0.00075199  -0.00006631  0.61326187  1
  K  K3  1  0.49924806  0.50006623  0.61326195  1
  I  I4  1  0.66743615  -0.00005237  0.86241055  1
  I  I5  1  0.16743617  0.50005215  0.86241053  1
  I  I6  1  0.33256459  0.00005251  0.36241119  1
  I  I7  1  0.83256461  0.49994797  0.36241120  1
