# generated using pymatgen
data_LiBr
_symmetry_space_group_name_H-M   'P 1'
_cell_length_a   3.81619059
_cell_length_b   3.81619564
_cell_length_c   13.54907607
_cell_angle_alpha   89.99992750
_cell_angle_beta   90.00004211
_cell_angle_gamma   89.99542182
_symmetry_Int_Tables_number   1
_chemical_formula_structural   LiBr
_chemical_formula_sum   'Li4 Br4'
_cell_volume   197.31966422
_cell_formula_units_Z   4
loop_
 _symmetry_equiv_pos_site_id
 _symmetry_equiv_pos_as_xyz
  1  'x, y, z'
loop_
 _atom_site_type_symbol
 _atom_site_label
 _atom_site_symmetry_multiplicity
 _atom_site_fract_x
 _atom_site_fract_y
 _atom_site_fract_z
 _atom_site_occupancy
  Li  Li0  1  0.82121217  0.50142516  0.23250154  1
  Li  Li1  1  0.50142086  0.17879578  0.48250048  1
  Li  Li2  1  0.17878804  0.49857387  0.73250182  1
  Li  Li3  1  0.49857791  0.82120383  0.98249973  1
  Br  Br4  1  0.67875109  0.67501402  0.60712295  1
  Br  Br5  1  0.67501251  0.32122560  0.85712292  1
  Br  Br6  1  0.32124856  0.32498537  0.10712269  1
  Br  Br7  1  0.32498886  0.67877638  0.35712252  1
