# generated using pymatgen
data_LiBr
_symmetry_space_group_name_H-M   'P 1'
_cell_length_a   11.92470871
_cell_length_b   11.92469045
_cell_length_c   7.29654731
_cell_angle_alpha   89.99869570
_cell_angle_beta   90.00137896
_cell_angle_gamma   120.00090125
_symmetry_Int_Tables_number   1
_chemical_formula_structural   LiBr
_chemical_formula_sum   'Li18 Br18'
_cell_volume   898.54324507
_cell_formula_units_Z   18
loop_
 _symmetry_equiv_pos_site_id
 _symmetry_equiv_pos_as_xyz
  1  'x, y, z'
loop_
 _atom_site_type_symbol
 _atom_site_label
 _atom_site_symmetry_multiplicity
 _atom_site_fract_x
 _atom_site_fract_y
 _atom_site_fract_z
 _atom_site_occupancy
  Li  Li0  1  0.62420014  0.12527502  0.92447613  1
  Li  Li1  1  0.62422018  0.49893296  0.42451658  1
  Li  Li2  1  0.20819959  0.04216024  0.09144195  1
  Li  Li3  1  0.83395957  0.79181281  0.09146411  1
  Li  Li4  1  0.54167258  0.83345275  0.25836558  1
  Li  Li5  1  0.87473280  0.49892767  0.92450139  1
  Li  Li6  1  0.83391971  0.04214534  0.59145189  1
  Li  Li7  1  0.20819234  0.16604268  0.59146032  1
  Li  Li8  1  0.50106775  0.37578190  0.92452009  1
  Li  Li9  1  0.50107229  0.12526532  0.42450258  1
  Li  Li10  1  0.95784005  0.79180159  0.59144487  1
  Li  Li11  1  0.95785324  0.16608350  0.09145327  1
  Li  Li12  1  0.16649709  0.70821725  0.25841937  1
  Li  Li13  1  0.16655339  0.45833136  0.75835952  1
  Li  Li14  1  0.87472267  0.37579771  0.42448041  1
  Li  Li15  1  0.54171681  0.70820397  0.75839090  1
  Li  Li16  1  0.29179434  0.45828068  0.25838590  1
  Li  Li17  1  0.29178046  0.83350129  0.75841942  1
  Br  Br18  1  0.37546634  0.50017419  0.92489205  1
  Br  Br19  1  0.37545297  0.87525665  0.42490832  1
  Br  Br20  1  0.83257247  0.29082063  0.09172152  1
  Br  Br21  1  0.45822757  0.16740067  0.09172961  1
  Br  Br22  1  0.16611529  0.20837183  0.25837640  1
  Br  Br23  1  0.49981143  0.87526784  0.92487050  1
  Br  Br24  1  0.45823957  0.29082581  0.59172224  1
  Br  Br25  1  0.83259755  0.54177169  0.59172724  1
  Br  Br26  1  0.12474588  0.62454284  0.92490459  1
  Br  Br27  1  0.12473016  0.50018866  0.42486442  1
  Br  Br28  1  0.70917775  0.16742543  0.59172166  1
  Br  Br29  1  0.70917650  0.54176041  0.09172066  1
  Br  Br30  1  0.79162887  0.95776592  0.25836205  1
  Br  Br31  1  0.79162788  0.83388423  0.75837747  1
  Br  Br32  1  0.49982194  0.62453436  0.42489222  1
  Br  Br33  1  0.16611933  0.95774098  0.75836950  1
  Br  Br34  1  0.04225800  0.83388146  0.25836927  1
  Br  Br35  1  0.04223554  0.20837234  0.75836166  1
