# generated using pymatgen
data_LiI
_symmetry_space_group_name_H-M   'P 1'
_cell_length_a   9.84731638
_cell_length_b   9.84730373
_cell_length_c   11.60899117
_cell_angle_alpha   89.99977215
_cell_angle_beta   89.99967798
_cell_angle_gamma   90.00044112
_symmetry_Int_Tables_number   1
_chemical_formula_structural   LiI
_chemical_formula_sum   'Li8 I8'
_cell_volume   1125.71824684
_cell_formula_units_Z   8
loop_
 _symmetry_equiv_pos_site_id
 _symmetry_equiv_pos_as_xyz
  1  'x, y, z'
loop_
 _atom_site_type_symbol
 _atom_site_label
 _atom_site_symmetry_multiplicity
 _atom_site_fract_x
 _atom_site_fract_y
 _atom_site_fract_z
 _atom_site_occupancy
  Li  Li0  1  0.50023837  0.15806218  0.20007189  1
  Li  Li1  1  0.34193933  0.50024319  0.95007645  1
  Li  Li2  1  0.15806428  0.99975912  0.45007226  1
  Li  Li3  1  0.84193799  0.00024190  0.45007063  1
  Li  Li4  1  0.65806306  0.49975696  0.95007721  1
  Li  Li5  1  0.00023991  0.65806105  0.70007113  1
  Li  Li6  1  0.99975913  0.34193674  0.70007740  1
  Li  Li7  1  0.49975859  0.84193800  0.20007519  1
  I  I8  1  0.28303001  0.00060060  0.24634481  1
  I  I9  1  0.49939752  0.28303652  -0.00365564  1
  I  I10  1  0.00060296  0.21696475  0.49634626  1
  I  I11  1  -0.00060110  0.78303435  0.49634312  1
  I  I12  1  0.50060387  0.71696422  -0.00365224  1
  I  I13  1  0.78303752  0.50059908  0.74634766  1
  I  I14  1  0.21696317  0.49940001  0.74634775  1
  I  I15  1  0.71696539  -0.00059865  0.24634580  1
