# generated using pymatgen
data_LiBr
_symmetry_space_group_name_H-M   'P 1'
_cell_length_a   11.54412888
_cell_length_b   11.54413547
_cell_length_c   7.93031205
_cell_angle_alpha   90.00280684
_cell_angle_beta   89.99726250
_cell_angle_gamma   120.00345302
_symmetry_Int_Tables_number   1
_chemical_formula_structural   LiBr
_chemical_formula_sum   'Li18 Br18'
_cell_volume   915.22605741
_cell_formula_units_Z   18
loop_
 _symmetry_equiv_pos_site_id
 _symmetry_equiv_pos_as_xyz
  1  'x, y, z'
loop_
 _atom_site_type_symbol
 _atom_site_label
 _atom_site_symmetry_multiplicity
 _atom_site_fract_x
 _atom_site_fract_y
 _atom_site_fract_z
 _atom_site_occupancy
  Li  Li0  1  0.40679958  0.20144880  0.87030718  1
  Li  Li1  1  0.40680978  0.20534543  0.37030541  1
  Li  Li2  1  0.13198880  0.25989174  0.03700293  1
  Li  Li3  1  0.12790710  0.86801566  0.03699414  1
  Li  Li4  1  0.46530627  0.53874266  0.20364930  1
  Li  Li5  1  0.79854647  0.20535285  0.87029991  1
  Li  Li6  1  0.12791207  0.25988999  0.53700014  1
  Li  Li7  1  0.13198357  0.87209301  0.53699351  1
  Li  Li8  1  0.79465225  0.59319226  0.87030311  1
  Li  Li9  1  0.79464948  0.20145347  0.37029967  1
  Li  Li10  1  0.74010839  0.86801141  0.53700276  1
  Li  Li11  1  0.74010979  0.87208842  0.03700008  1
  Li  Li12  1  0.46125908  0.92656206  0.20365490  1
  Li  Li13  1  0.46125578  0.53469306  0.70364887  1
  Li  Li14  1  0.79855114  0.59320019  0.37030479  1
  Li  Li15  1  0.46530608  0.92656062  0.70365780  1
  Li  Li16  1  0.07343710  0.53469265  0.20365721  1
  Li  Li17  1  0.07343820  0.53874175  0.70365504  1
  Br  Br18  1  0.54466732  0.09235785  0.44287992  1
  Br  Br19  1  0.54466515  0.45230799  0.94286230  1
  Br  Br20  1  0.24101514  0.12206134  0.60951204  1
  Br  Br21  1  0.88104766  0.75898980  0.60951421  1
  Br  Br22  1  0.57430956  0.78562145  0.77621024  1
  Br  Br23  1  -0.09236108  0.45230970  0.44288019  1
  Br  Br24  1  0.88104467  0.12206292  0.10949570  1
  Br  Br25  1  0.24101100  0.11895238  0.10951578  1
  Br  Br26  1  0.54769220  0.45533371  0.44286219  1
  Br  Br27  1  0.54769017  0.09236088  0.94288089  1
  Br  Br28  1  0.87793888  0.75898617  0.10951131  1
  Br  Br29  1  0.87793826  0.11895598  0.60949682  1
  Br  Br30  1  0.21437433  0.78869449  0.77619417  1
  Br  Br31  1  0.21437808  0.42569052  0.27621155  1
  Br  Br32  1  -0.09235913  0.45533487  0.94287778  1
  Br  Br33  1  0.57431296  0.78869130  0.27620997  1
  Br  Br34  1  0.21130818  0.42568730  0.77621155  1
  Br  Br35  1  0.21130570  0.78562533  0.27619454  1
