# generated using pymatgen
data_LiBr
_symmetry_space_group_name_H-M   'P 1'
_cell_length_a   8.51090929
_cell_length_b   8.51088887
_cell_length_c   14.22779701
_cell_angle_alpha   90.00018708
_cell_angle_beta   89.99985572
_cell_angle_gamma   90.00015829
_symmetry_Int_Tables_number   1
_chemical_formula_structural   LiBr
_chemical_formula_sum   'Li16 Br16'
_cell_volume   1030.59621242
_cell_formula_units_Z   16
loop_
 _symmetry_equiv_pos_site_id
 _symmetry_equiv_pos_as_xyz
  1  'x, y, z'
loop_
 _atom_site_type_symbol
 _atom_site_label
 _atom_site_symmetry_multiplicity
 _atom_site_fract_x
 _atom_site_fract_y
 _atom_site_fract_z
 _atom_site_occupancy
  Li  Li0  1  0.64138308  0.85679919  0.32467058  1
  Li  Li1  1  0.14320097  0.64138303  0.32467018  1
  Li  Li2  1  0.64138308  0.85679853  0.67532908  1
  Li  Li3  1  0.64320078  0.14138365  0.82467055  1
  Li  Li4  1  0.14138326  0.35679819  0.17532944  1
  Li  Li5  1  0.35679941  0.85861738  0.82467120  1
  Li  Li6  1  0.14138348  0.35679957  0.82467060  1
  Li  Li7  1  0.85861695  0.64320118  0.82467110  1
  Li  Li8  1  0.64320082  0.14138353  0.17532891  1
  Li  Li9  1  0.85861732  0.64320118  0.17532944  1
  Li  Li10  1  0.35679923  0.85861651  0.17532976  1
  Li  Li11  1  0.35861629  0.14320161  0.32467059  1
  Li  Li12  1  0.85679873  0.35861689  0.32467103  1
  Li  Li13  1  0.14320054  0.64138271  0.67532884  1
  Li  Li14  1  0.35861657  0.14320057  0.67532940  1
  Li  Li15  1  0.85679950  0.35861634  0.67532941  1
  Br  Br16  1  0.84571302  0.34724458  0.14259745  1
  Br  Br17  1  0.65275478  0.84571177  0.14259799  1
  Br  Br18  1  0.84571238  0.34724559  0.85740283  1
  Br  Br19  1  0.15275476  0.34571167  0.64259798  1
  Br  Br20  1  0.34571279  0.84724486  0.35740261  1
  Br  Br21  1  0.84724599  0.65428740  0.64259860  1
  Br  Br22  1  0.34571290  0.84724446  0.64259883  1
  Br  Br23  1  0.65428757  0.15275459  0.64259716  1
  Br  Br24  1  0.15275407  0.34571273  0.35740191  1
  Br  Br25  1  0.65428656  0.15275589  0.35740228  1
  Br  Br26  1  0.84724565  0.65428860  0.35740215  1
  Br  Br27  1  0.15428768  0.65275459  0.14259737  1
  Br  Br28  1  0.34724540  0.15428692  0.14259824  1
  Br  Br29  1  0.65275413  0.84571242  0.85740140  1
  Br  Br30  1  0.15428701  0.65275565  0.85740115  1
  Br  Br31  1  0.34724527  0.15428821  0.85740197  1
