# generated using pymatgen
data_LiBr
_symmetry_space_group_name_H-M   'P 1'
_cell_length_a   7.88936100
_cell_length_b   8.00797768
_cell_length_c   8.00947340
_cell_angle_alpha   114.03348447
_cell_angle_beta   115.00334899
_cell_angle_gamma   81.66321097
_symmetry_Int_Tables_number   1
_chemical_formula_structural   LiBr
_chemical_formula_sum   'Li8 Br8'
_cell_volume   418.61600968
_cell_formula_units_Z   8
loop_
 _symmetry_equiv_pos_site_id
 _symmetry_equiv_pos_as_xyz
  1  'x, y, z'
loop_
 _atom_site_type_symbol
 _atom_site_label
 _atom_site_symmetry_multiplicity
 _atom_site_fract_x
 _atom_site_fract_y
 _atom_site_fract_z
 _atom_site_occupancy
  Li  Li0  1  0.83799314  0.32831575  0.60087712  1
  Li  Li1  1  0.83910151  0.32840683  0.10192475  1
  Li  Li2  1  0.16143839  0.67184747  0.43270196  1
  Li  Li3  1  0.33850918  0.17283606  0.52129335  1
  Li  Li4  1  0.66119339  0.82742789  0.51339762  1
  Li  Li5  1  0.66235062  0.82731223  0.01383038  1
  Li  Li6  1  0.16177559  0.67180150  -0.06740091  1
  Li  Li7  1  0.33820587  0.17247326  0.02079602  1
  Br  Br8  1  0.19530745  0.32528797  0.77380567  1
  Br  Br9  1  0.80432572  0.67452322  0.26065878  1
  Br  Br10  1  0.80427493  0.67448188  0.76022605  1
  Br  Br11  1  0.30756042  0.82662129  0.80914811  1
  Br  Br12  1  0.69279104  0.17320918  0.72472742  1
  Br  Br13  1  0.30720371  0.82680625  0.30925402  1
  Br  Br14  1  0.19548275  0.32534715  0.27404958  1
  Br  Br15  1  0.69248629  0.17330207  0.22433880  1
