# generated using pymatgen
data_KI
_symmetry_space_group_name_H-M   'P 1'
_cell_length_a   12.69604816
_cell_length_b   4.38265063
_cell_length_c   5.96597240
_cell_angle_alpha   89.99999841
_cell_angle_beta   90.00000094
_cell_angle_gamma   90.00000686
_symmetry_Int_Tables_number   1
_chemical_formula_structural   KI
_chemical_formula_sum   'K4 I4'
_cell_volume   331.96068564
_cell_formula_units_Z   4
loop_
 _symmetry_equiv_pos_site_id
 _symmetry_equiv_pos_as_xyz
  1  'x, y, z'
loop_
 _atom_site_type_symbol
 _atom_site_label
 _atom_site_symmetry_multiplicity
 _atom_site_fract_x
 _atom_site_fract_y
 _atom_site_fract_z
 _atom_site_occupancy
  K  K0  1  0.87174755  0.05126599  0.84017120  1
  K  K1  1  0.37174757  0.94873406  0.84017123  1
  K  K2  1  0.12825245  0.94873403  0.34017127  1
  K  K3  1  0.62825243  0.05126595  0.34017123  1
  I  I4  1  0.87401458  0.55925092  0.33968985  1
  I  I5  1  0.37401459  0.44074912  0.33968976  1
  I  I6  1  0.12598542  0.44074907  0.83968977  1
  I  I7  1  0.62598541  0.55925087  0.83968985  1
