# generated using pymatgen
data_LiBr
_symmetry_space_group_name_H-M   'P 1'
_cell_length_a   12.87489097
_cell_length_b   15.15330458
_cell_length_c   3.88389412
_cell_angle_alpha   90.00001867
_cell_angle_beta   89.99927385
_cell_angle_gamma   89.99638472
_symmetry_Int_Tables_number   1
_chemical_formula_structural   LiBr
_chemical_formula_sum   'Li16 Br16'
_cell_volume   757.73664940
_cell_formula_units_Z   16
loop_
 _symmetry_equiv_pos_site_id
 _symmetry_equiv_pos_as_xyz
  1  'x, y, z'
loop_
 _atom_site_type_symbol
 _atom_site_label
 _atom_site_symmetry_multiplicity
 _atom_site_fract_x
 _atom_site_fract_y
 _atom_site_fract_z
 _atom_site_occupancy
  Li  Li0  1  0.42807516  0.83895160  0.00473203  1
  Li  Li1  1  0.57192589  0.16104949  0.00475178  1
  Li  Li2  1  0.82206447  0.08874935  0.25543605  1
  Li  Li3  1  0.07192667  0.16104940  0.50474682  1
  Li  Li4  1  0.32206485  0.08874824  0.75543828  1
  Li  Li5  1  0.67793705  0.41125077  0.25543303  1
  Li  Li6  1  0.92807483  0.83895179  0.50473846  1
  Li  Li7  1  0.32206394  0.58874884  0.25543725  1
  Li  Li8  1  0.67793730  0.91124977  0.75542250  1
  Li  Li9  1  0.92807524  0.33895138  0.00473918  1
  Li  Li10  1  0.07192552  0.66104892  0.00475024  1
  Li  Li11  1  0.82206424  0.58874886  0.75544152  1
  Li  Li12  1  0.17793757  0.41125041  0.75541686  1
  Li  Li13  1  0.17793666  0.91125020  0.25542317  1
  Li  Li14  1  0.42807567  0.33895197  0.50473555  1
  Li  Li15  1  0.57192570  0.66104896  0.50474549  1
  Br  Br16  1  0.39000348  0.18441013  0.25584346  1
  Br  Br17  1  0.60999463  0.81559017  0.25582764  1
  Br  Br18  1  0.86001218  0.43443680  0.50526177  1
  Br  Br19  1  0.10999460  0.81558999  0.75582960  1
  Br  Br20  1  0.36001124  0.43443679  0.00526038  1
  Br  Br21  1  0.63998747  0.06556368  0.50527424  1
  Br  Br22  1  0.89000442  0.18440981  0.75583854  1
  Br  Br23  1  0.36001152  0.93443628  0.50525677  1
  Br  Br24  1  0.63998688  0.56556269  0.00526996  1
  Br  Br25  1  0.89000306  0.68441011  0.25584438  1
  Br  Br26  1  0.10999540  0.31559005  0.25582287  1
  Br  Br27  1  0.86001107  0.93443711  0.00526274  1
  Br  Br28  1  0.13998773  0.06556307  0.00527140  1
  Br  Br29  1  0.13998678  0.56556339  0.50527155  1
  Br  Br30  1  0.39000345  0.68440953  0.75584259  1
  Br  Br31  1  0.60999532  0.31559043  0.75583759  1
