# generated using pymatgen
data_LiI
_symmetry_space_group_name_H-M   'P 1'
_cell_length_a   12.26839156
_cell_length_b   12.26840885
_cell_length_c   12.23477071
_cell_angle_alpha   89.99952137
_cell_angle_beta   89.99642723
_cell_angle_gamma   119.99923815
_symmetry_Int_Tables_number   1
_chemical_formula_structural   LiI
_chemical_formula_sum   'Li18 I18'
_cell_volume   1594.79794741
_cell_formula_units_Z   18
loop_
 _symmetry_equiv_pos_site_id
 _symmetry_equiv_pos_as_xyz
  1  'x, y, z'
loop_
 _atom_site_type_symbol
 _atom_site_label
 _atom_site_symmetry_multiplicity
 _atom_site_fract_x
 _atom_site_fract_y
 _atom_site_fract_z
 _atom_site_occupancy
  Li  Li0  1  0.20520287  0.97227110  0.40804883  1
  Li  Li1  1  0.89954279  0.53878691  -0.07502321  1
  Li  Li2  1  0.79478877  0.02772296  0.59196372  1
  Li  Li3  1  0.76709445  0.79481757  0.40805717  1
  Li  Li4  1  0.63923864  0.10042733  -0.07501539  1
  Li  Li5  1  0.97226439  0.76708271  0.59196316  1
  Li  Li6  1  0.69434204  0.56648279  0.74175682  1
  Li  Li7  1  0.02773507  0.23291236  0.40805271  1
  Li  Li8  1  0.23290827  0.20519002  0.59195390  1
  Li  Li9  1  0.30566510  0.43351460  0.25823468  1
  Li  Li10  1  0.36075186  0.89957749  0.07500843  1
  Li  Li11  1  0.43353067  0.12787596  0.74175563  1
  Li  Li12  1  0.56647666  0.87213348  0.25824183  1
  Li  Li13  1  0.10045099  0.46119732  0.07501548  1
  Li  Li14  1  0.87213690  0.30566625  0.74175885  1
  Li  Li15  1  0.12785482  0.69432716  0.25823756  1
  Li  Li16  1  0.46120674  0.36077023  -0.07501813  1
  Li  Li17  1  0.53880732  0.63923908  0.07500862  1
  I  I18  1  0.54154925  0.63748587  0.30268034  1
  I  I19  1  0.57077860  -0.12498475  0.03046836  1
  I  I20  1  0.45844298  0.36250652  0.69730781  1
  I  I21  1  0.09596354  0.45844883  0.30268547  1
  I  I22  1  0.30421040  0.42919519  0.03044817  1
  I  I23  1  0.63749491  0.09593625  0.69730712  1
  I  I24  1  0.02926885  0.23796475  0.63597423  1
  I  I25  1  0.36251067  -0.09593880  0.30268757  1
  I  I26  1  -0.09596072  0.54156493  0.69730360  1
  I  I27  1  0.97074508  0.76203615  0.36401482  1
  I  I28  1  0.69577125  0.57080616  0.96956619  1
  I  I29  1  0.76205074  0.79131207  0.63597064  1
  I  I30  1  0.23794867  0.20869537  0.36402160  1
  I  I31  1  0.42922020  0.12496758  0.96955173  1
  I  I32  1  0.20868558  0.97072508  0.63595857  1
  I  I33  1  0.79130170  0.02926321  0.36403271  1
  I  I34  1  0.12499951  0.69578819  0.03046305  1
  I  I35  1  -0.12497957  0.30423206  0.96955735  1
