# generated using pymatgen
data_LiBr
_symmetry_space_group_name_H-M   'P 1'
_cell_length_a   3.92009917
_cell_length_b   3.92009599
_cell_length_c   10.78342691
_cell_angle_alpha   89.99967653
_cell_angle_beta   89.99992463
_cell_angle_gamma   90.00092352
_symmetry_Int_Tables_number   1
_chemical_formula_structural   LiBr
_chemical_formula_sum   'Li4 Br4'
_cell_volume   165.71070070
_cell_formula_units_Z   4
loop_
 _symmetry_equiv_pos_site_id
 _symmetry_equiv_pos_as_xyz
  1  'x, y, z'
loop_
 _atom_site_type_symbol
 _atom_site_label
 _atom_site_symmetry_multiplicity
 _atom_site_fract_x
 _atom_site_fract_y
 _atom_site_fract_z
 _atom_site_occupancy
  Li  Li0  1  0.99465172  0.49787128  0.01635777  1
  Li  Li1  1  0.49786617  0.00533572  0.76635724  1
  Li  Li2  1  0.00534759  0.50212895  0.51635708  1
  Li  Li3  1  0.50213438  0.99466461  0.26635653  1
  Br  Br4  1  0.00063895  0.49911697  0.26624236  1
  Br  Br5  1  0.49911404  -0.00063752  0.01624170  1
  Br  Br6  1  -0.00063923  0.50088305  0.76624240  1
  Br  Br7  1  0.50088639  0.00063694  0.51624176  1
