# generated using pymatgen
data_NaI
_symmetry_space_group_name_H-M   'P 1'
_cell_length_a   5.07401718
_cell_length_b   5.13879020
_cell_length_c   8.62846891
_cell_angle_alpha   90.00098176
_cell_angle_beta   125.36525404
_cell_angle_gamma   89.99610429
_symmetry_Int_Tables_number   1
_chemical_formula_structural   NaI
_chemical_formula_sum   'Na2 I2'
_cell_volume   183.46756943
_cell_formula_units_Z   2
loop_
 _symmetry_equiv_pos_site_id
 _symmetry_equiv_pos_as_xyz
  1  'x, y, z'
loop_
 _atom_site_type_symbol
 _atom_site_label
 _atom_site_symmetry_multiplicity
 _atom_site_fract_x
 _atom_site_fract_y
 _atom_site_fract_z
 _atom_site_occupancy
  Na  Na0  1  0.69230705  0.24664040  0.32221744  1
  Na  Na1  1  0.69230566  0.75334924  0.82221708  1
  I  I2  1  0.44064351  0.74677514  0.07523213  1
  I  I3  1  0.44064367  0.25323522  0.57523235  1
