# generated using pymatgen
data_LiBr
_symmetry_space_group_name_H-M   'P 1'
_cell_length_a   7.42521766
_cell_length_b   3.85007400
_cell_length_c   6.69344505
_cell_angle_alpha   90.00000030
_cell_angle_beta   89.99999432
_cell_angle_gamma   90.00012193
_symmetry_Int_Tables_number   1
_chemical_formula_structural   LiBr
_chemical_formula_sum   'Li4 Br4'
_cell_volume   191.34978033
_cell_formula_units_Z   4
loop_
 _symmetry_equiv_pos_site_id
 _symmetry_equiv_pos_as_xyz
  1  'x, y, z'
loop_
 _atom_site_type_symbol
 _atom_site_label
 _atom_site_symmetry_multiplicity
 _atom_site_fract_x
 _atom_site_fract_y
 _atom_site_fract_z
 _atom_site_occupancy
  Li  Li0  1  0.80515783  0.91707181  0.63650952  1
  Li  Li1  1  0.19484121  0.41706786  0.86348999  1
  Li  Li2  1  0.69484205  0.08292830  0.13650932  1
  Li  Li3  1  0.30515898  0.58293224  0.36348999  1
  Br  Br4  1  0.13071225  0.08029179  0.53448859  1
  Br  Br5  1  0.86928706  0.58029034  0.96551198  1
  Br  Br6  1  0.36928769  -0.08029191  0.03448860  1
  Br  Br7  1  0.63071292  0.41970958  0.46551202  1
