# generated using pymatgen
data_LiBr
_symmetry_space_group_name_H-M   'P 1'
_cell_length_a   3.79583580
_cell_length_b   13.29767870
_cell_length_c   3.76263700
_cell_angle_alpha   90.00054825
_cell_angle_beta   89.99883236
_cell_angle_gamma   89.99988874
_symmetry_Int_Tables_number   1
_chemical_formula_structural   LiBr
_chemical_formula_sum   'Li4 Br4'
_cell_volume   189.92213091
_cell_formula_units_Z   4
loop_
 _symmetry_equiv_pos_site_id
 _symmetry_equiv_pos_as_xyz
  1  'x, y, z'
loop_
 _atom_site_type_symbol
 _atom_site_label
 _atom_site_symmetry_multiplicity
 _atom_site_fract_x
 _atom_site_fract_y
 _atom_site_fract_z
 _atom_site_occupancy
  Li  Li0  1  -0.25158435  0.91527624  0.08589026  1
  Li  Li1  1  0.24841503  0.58472404  0.08589093  1
  Li  Li2  1  0.25158364  0.08472316  0.58589197  1
  Li  Li3  1  0.75158330  0.41527665  0.58589024  1
  Br  Br4  1  0.24957937  0.38923932  0.08612817  1
  Br  Br5  1  0.74957995  0.11076049  0.08613648  1
  Br  Br6  1  0.75042153  0.61076216  0.58613804  1
  Br  Br7  1  0.25042154  0.88923794  0.58613091  1
