# generated using pymatgen
data_LiBr
_symmetry_space_group_name_H-M   'P 1'
_cell_length_a   11.42197372
_cell_length_b   11.42196790
_cell_length_c   7.33014691
_cell_angle_alpha   90.00030368
_cell_angle_beta   90.00002304
_cell_angle_gamma   120.00016550
_symmetry_Int_Tables_number   1
_chemical_formula_structural   LiBr
_chemical_formula_sum   'Li18 Br18'
_cell_volume   828.17988425
_cell_formula_units_Z   18
loop_
 _symmetry_equiv_pos_site_id
 _symmetry_equiv_pos_as_xyz
  1  'x, y, z'
loop_
 _atom_site_type_symbol
 _atom_site_label
 _atom_site_symmetry_multiplicity
 _atom_site_fract_x
 _atom_site_fract_y
 _atom_site_fract_z
 _atom_site_occupancy
  Li  Li0  1  0.56740757  0.43373714  0.80031762  1
  Li  Li1  1  0.56741805  0.13366972  0.30029234  1
  Li  Li2  1  0.89924438  0.09899436  0.96621994  1
  Li  Li3  1  0.19974716  0.10075572  0.96620445  1
  Li  Li4  1  0.23261698  0.46696597  0.13265538  1
  Li  Li5  1  0.56625710  0.13367658  0.80030595  1
  Li  Li6  1  0.19975948  0.09899154  0.46619093  1
  Li  Li7  1  0.89924462  0.80025101  0.46620714  1
  Li  Li8  1  0.86633070  0.43258333  0.80029492  1
  Li  Li9  1  0.86632519  0.43374118  0.30030769  1
  Li  Li10  1  0.90100501  0.10075408  0.46622008  1
  Li  Li11  1  0.90100533  0.80023986  0.96619204  1
  Li  Li12  1  0.53304065  0.76565255  0.13264823  1
  Li  Li13  1  0.53303262  0.76738147  0.63265581  1
  Li  Li14  1  0.56626476  0.43259209  0.30031739  1
  Li  Li15  1  0.23262907  0.76566111  0.63267767  1
  Li  Li16  1  0.23434062  0.76737370  0.13267503  1
  Li  Li17  1  0.23434703  0.46695749  0.63264596  1
  Br  Br18  1  0.10617974  0.89104648  0.70476117  1
  Br  Br19  1  0.10617712  0.21513868  0.20478725  1
  Br  Br20  1  0.44214829  0.56037970  0.87157485  1
  Br  Br21  1  0.11822668  0.55784823  0.87159702  1
  Br  Br22  1  0.77551621  0.54845655  0.03881591  1
  Br  Br23  1  0.10895743  0.21513274  0.70478428  1
  Br  Br24  1  0.11822408  0.56038032  0.37160013  1
  Br  Br25  1  0.44215362  0.88177475  0.37159143  1
  Br  Br26  1  0.78486053  0.89382117  0.70478844  1
  Br  Br27  1  0.78486652  0.89104196  0.20478549  1
  Br  Br28  1  0.43962228  0.55785108  0.37157484  1
  Br  Br29  1  0.43962098  0.88177955  0.87159505  1
  Br  Br30  1  0.45153311  0.22705922  0.03882265  1
  Br  Br31  1  0.45154358  0.22448327  0.53881965  1
  Br  Br32  1  0.10895224  0.89381948  0.20476075  1
  Br  Br33  1  0.77551920  0.22706022  0.53880298  1
  Br  Br34  1  0.77293999  0.22448199  0.03880295  1
  Br  Br35  1  0.77294206  0.54846577  0.53881913  1
