# generated using pymatgen
data_LiBr
_symmetry_space_group_name_H-M   'P 1'
_cell_length_a   14.76438133
_cell_length_b   14.76439923
_cell_length_c   14.04183205
_cell_angle_alpha   90.01673958
_cell_angle_beta   89.98327627
_cell_angle_gamma   120.05142867
_symmetry_Int_Tables_number   1
_chemical_formula_structural   LiBr
_chemical_formula_sum   'Li36 Br36'
_cell_volume   2649.47677813
_cell_formula_units_Z   36
loop_
 _symmetry_equiv_pos_site_id
 _symmetry_equiv_pos_as_xyz
  1  'x, y, z'
loop_
 _atom_site_type_symbol
 _atom_site_label
 _atom_site_symmetry_multiplicity
 _atom_site_fract_x
 _atom_site_fract_y
 _atom_site_fract_z
 _atom_site_occupancy
  Li  Li0  1  0.63679042  0.17157240  0.25980787  1
  Li  Li1  1  0.79848413  0.30346648  0.40671470  1
  Li  Li2  1  0.20147718  0.50495309  0.09322478  1
  Li  Li3  1  0.20151542  0.69653342  0.59328528  1
  Li  Li4  1  0.13183058  0.97028962  0.07345345  1
  Li  Li5  1  0.86819987  0.83846120  0.42646528  1
  Li  Li6  1  0.16153942  0.13179973  0.92646519  1
  Li  Li7  1  0.50495208  0.20147626  0.40677476  1
  Li  Li8  1  0.83846093  0.86820030  0.07353496  1
  Li  Li9  1  0.82840345  0.46526757  0.25980109  1
  Li  Li10  1  0.86816927  0.02971035  0.92654685  1
  Li  Li11  1  0.50498162  0.30337253  0.90677882  1
  Li  Li12  1  0.49501910  0.69662815  0.09322147  1
  Li  Li13  1  0.63692564  0.46527463  0.75988724  1
  Li  Li14  1  0.13179998  0.16153866  0.57353471  1
  Li  Li15  1  0.49504786  0.79852363  0.59322476  1
  Li  Li16  1  0.17159641  0.53473261  0.74019904  1
  Li  Li17  1  0.79852317  0.49504703  0.90677498  1
  Li  Li18  1  0.02982728  0.16156416  0.07351959  1
  Li  Li19  1  0.97028911  0.13183033  0.42654704  1
  Li  Li20  1  0.53472526  0.36307416  0.25988714  1
  Li  Li21  1  0.97017284  0.83843587  0.92648025  1
  Li  Li22  1  0.02971073  0.86816956  0.57345316  1
  Li  Li23  1  0.46527555  0.63692653  0.74011288  1
  Li  Li24  1  0.36320993  0.82842784  0.74019190  1
  Li  Li25  1  0.36307443  0.53472537  0.24011300  1
  Li  Li26  1  0.69662707  0.49501824  0.40677864  1
  Li  Li27  1  0.30346584  0.79848424  0.09328536  1
  Li  Li28  1  0.30337264  0.50498130  0.59322169  1
  Li  Li29  1  0.69653352  0.20151534  0.90671435  1
  Li  Li30  1  0.53473274  0.17159681  0.75980086  1
  Li  Li31  1  0.16156438  0.02982676  0.42648016  1
  Li  Li32  1  0.83843531  0.97017308  0.57352000  1
  Li  Li33  1  0.46526677  0.82840328  0.24019901  1
  Li  Li34  1  0.82842801  0.36320955  0.75980777  1
  Li  Li35  1  0.17157163  0.63678988  0.24019185  1
  Br  Br36  1  0.84478625  0.80941078  0.60299693  1
  Br  Br37  1  0.36866019  0.51149447  0.06361367  1
  Br  Br38  1  0.63118681  0.14271102  0.43628785  1
  Br  Br39  1  0.63134037  0.48850604  0.93638663  1
  Br  Br40  1  0.70197738  0.17813798  0.73025930  1
  Br  Br41  1  0.29792364  0.47611640  0.76965234  1
  Br  Br42  1  0.52388447  0.70207729  0.26965221  1
  Br  Br43  1  0.14271086  0.63118700  0.06371174  1
  Br  Br44  1  0.47611574  0.29792308  0.73034803  1
  Br  Br45  1  0.19054471  0.03543882  0.60299583  1
  Br  Br46  1  0.29802202  0.82186159  0.26974041  1
  Br  Br47  1  0.14267764  0.51142543  0.56371148  1
  Br  Br48  1  0.85732214  0.48857428  0.43628878  1
  Br  Br49  1  0.84485476  0.03533958  0.10308463  1
  Br  Br50  1  0.70207690  0.52388406  0.23034785  1
  Br  Br51  1  0.85728910  0.36881266  0.93628769  1
  Br  Br52  1  0.80945525  0.96456112  0.39700406  1
  Br  Br53  1  0.36881276  0.85728851  0.56371191  1
  Br  Br54  1  0.82196088  0.52394896  0.73033169  1
  Br  Br55  1  0.17813798  0.70197755  0.76974014  1
  Br  Br56  1  0.96466000  0.15514476  0.60308473  1
  Br  Br57  1  0.17803951  0.47605129  0.26966845  1
  Br  Br58  1  0.82186246  0.29802291  0.23025987  1
  Br  Br59  1  0.03533976  0.84485488  0.39691559  1
  Br  Br60  1  0.15521354  0.19058927  0.39700327  1
  Br  Br61  1  0.15514547  0.96466048  0.89691570  1
  Br  Br62  1  0.48857388  0.85732191  0.06371098  1
  Br  Br63  1  0.51149322  0.36865910  0.43638616  1
  Br  Br64  1  0.51142590  0.14267815  0.93628891  1
  Br  Br65  1  0.48850613  0.63134052  0.56361351  1
  Br  Br66  1  0.96456186  0.80945633  0.10299619  1
  Br  Br67  1  0.52394994  0.82196136  0.76966824  1
  Br  Br68  1  0.47605057  0.17803905  0.23033157  1
  Br  Br69  1  0.03543824  0.19054333  0.89700366  1
  Br  Br70  1  0.19059004  0.15521423  0.10299669  1
  Br  Br71  1  0.80941005  0.84478587  0.89700344  1
