# generated using pymatgen
data_NaI
_symmetry_space_group_name_H-M   'P 1'
_cell_length_a   8.97014242
_cell_length_b   7.88972218
_cell_length_c   7.73477873
_cell_angle_alpha   89.99990197
_cell_angle_beta   149.41138827
_cell_angle_gamma   90.00032812
_symmetry_Int_Tables_number   1
_chemical_formula_structural   NaI
_chemical_formula_sum   'Na4 I4'
_cell_volume   278.55827631
_cell_formula_units_Z   4
loop_
 _symmetry_equiv_pos_site_id
 _symmetry_equiv_pos_as_xyz
  1  'x, y, z'
loop_
 _atom_site_type_symbol
 _atom_site_label
 _atom_site_symmetry_multiplicity
 _atom_site_fract_x
 _atom_site_fract_y
 _atom_site_fract_z
 _atom_site_occupancy
  Na  Na0  1  0.74683237  0.75042293  0.24735054  1
  Na  Na1  1  0.25316283  0.25041928  0.25265818  1
  Na  Na2  1  0.25316763  0.24957708  0.75264946  1
  Na  Na3  1  0.74683717  0.74958072  0.74734182  1
  I  I4  1  0.75209066  0.41605795  0.00254108  1
  I  I5  1  0.24790345  0.91605171  0.49745368  1
  I  I6  1  0.24790934  0.58394205  -0.00254108  1
  I  I7  1  0.75209655  0.08394829  0.50254632  1
