# generated using pymatgen
data_LiI
_symmetry_space_group_name_H-M   'P 1'
_cell_length_a   9.87328502
_cell_length_b   7.65579266
_cell_length_c   7.35793315
_cell_angle_alpha   89.99974741
_cell_angle_beta   89.99925075
_cell_angle_gamma   89.99983513
_symmetry_Int_Tables_number   1
_chemical_formula_structural   LiI
_chemical_formula_sum   'Li8 I8'
_cell_volume   556.17014791
_cell_formula_units_Z   8
loop_
 _symmetry_equiv_pos_site_id
 _symmetry_equiv_pos_as_xyz
  1  'x, y, z'
loop_
 _atom_site_type_symbol
 _atom_site_label
 _atom_site_symmetry_multiplicity
 _atom_site_fract_x
 _atom_site_fract_y
 _atom_site_fract_z
 _atom_site_occupancy
  Li  Li0  1  0.63533404  0.35939347  0.86921832  1
  Li  Li1  1  0.13533363  0.14060562  0.86921483  1
  Li  Li2  1  0.36466428  0.35939351  0.36921677  1
  Li  Li3  1  0.36466498  0.64060661  0.86921244  1
  Li  Li4  1  0.63533238  0.64060624  0.36921518  1
  Li  Li5  1  0.86466324  0.85939279  0.86921557  1
  Li  Li6  1  0.86466467  0.14060685  0.36921237  1
  Li  Li7  1  0.13533466  0.85939372  0.36921869  1
  I  I8  1  0.36896675  0.29556651  0.74128717  1
  I  I9  1  0.86896610  0.20443367  0.74128346  1
  I  I10  1  0.63103502  0.29556632  0.24128634  1
  I  I11  1  0.63103565  0.70443343  0.74128367  1
  I  I12  1  0.36896593  0.70443380  0.24128292  1
  I  I13  1  0.13103543  0.79556601  0.74128678  1
  I  I14  1  0.13103713  0.20443391  0.24128390  1
  I  I15  1  0.86896611  0.79556756  0.24128709  1
