# generated using pymatgen
data_LiI
_symmetry_space_group_name_H-M   'P 1'
_cell_length_a   11.16808506
_cell_length_b   11.94721730
_cell_length_c   9.20246207
_cell_angle_alpha   89.99960697
_cell_angle_beta   90.00008555
_cell_angle_gamma   89.99997073
_symmetry_Int_Tables_number   1
_chemical_formula_structural   LiI
_chemical_formula_sum   'Li16 I16'
_cell_volume   1227.86186739
_cell_formula_units_Z   16
loop_
 _symmetry_equiv_pos_site_id
 _symmetry_equiv_pos_as_xyz
  1  'x, y, z'
loop_
 _atom_site_type_symbol
 _atom_site_label
 _atom_site_symmetry_multiplicity
 _atom_site_fract_x
 _atom_site_fract_y
 _atom_site_fract_z
 _atom_site_occupancy
  Li  Li0  1  0.74981552  0.61184083  0.67256742  1
  Li  Li1  1  0.25018980  0.38816058  0.67257709  1
  Li  Li2  1  0.50018919  0.86184184  0.92257346  1
  Li  Li3  1  0.75019054  0.38815630  0.17257329  1
  Li  Li4  1  0.00018863  0.86184057  0.42257401  1
  Li  Li5  1  0.99980817  0.63815746  0.92257937  1
  Li  Li6  1  0.24981155  0.61184416  0.17257234  1
  Li  Li7  1  0.00018598  0.36184077  0.92256885  1
  Li  Li8  1  0.99980884  0.13815799  0.42257474  1
  Li  Li9  1  0.24981242  0.11184390  0.67257011  1
  Li  Li10  1  0.75018957  0.88815757  0.67257270  1
  Li  Li11  1  0.50018961  0.36184213  0.42257444  1
  Li  Li12  1  0.49980990  0.63815831  0.42257910  1
  Li  Li13  1  0.49980739  0.13815812  0.92257963  1
  Li  Li14  1  0.74981345  0.11184115  0.17256747  1
  Li  Li15  1  0.25018936  0.88815885  0.17257581  1
  I  I16  1  0.54909400  0.24996069  0.17240759  1
  I  I17  1  0.45090803  0.75003907  0.17240770  1
  I  I18  1  0.70090858  0.49996520  0.42239778  1
  I  I19  1  0.95090853  0.75003741  0.67240580  1
  I  I20  1  0.20090589  0.49996272  0.92240585  1
  I  I21  1  0.79909144  0.00003472  0.42239907  1
  I  I22  1  0.04909369  0.24996598  0.67239880  1
  I  I23  1  0.20090690  -0.00003640  0.42240288  1
  I  I24  1  0.79908981  0.50003542  0.92240045  1
  I  I25  1  0.04909225  0.74996387  0.17240441  1
  I  I26  1  0.95090859  0.25003586  0.17240101  1
  I  I27  1  0.70090703  -0.00003368  0.92239717  1
  I  I28  1  0.29909031  0.00003384  0.92240011  1
  I  I29  1  0.29909229  0.50003582  0.42240192  1
  I  I30  1  0.54909542  0.74996035  0.67240696  1
  I  I31  1  0.45090731  0.25003859  0.67240748  1
