# generated using pymatgen
data_NaI
_symmetry_space_group_name_H-M   'P 1'
_cell_length_a   9.51363706
_cell_length_b   5.44390212
_cell_length_c   6.52441166
_cell_angle_alpha   90.00008246
_cell_angle_beta   89.99996767
_cell_angle_gamma   90.00000290
_symmetry_Int_Tables_number   1
_chemical_formula_structural   NaI
_chemical_formula_sum   'Na4 I4'
_cell_volume   337.90782007
_cell_formula_units_Z   4
loop_
 _symmetry_equiv_pos_site_id
 _symmetry_equiv_pos_as_xyz
  1  'x, y, z'
loop_
 _atom_site_type_symbol
 _atom_site_label
 _atom_site_symmetry_multiplicity
 _atom_site_fract_x
 _atom_site_fract_y
 _atom_site_fract_z
 _atom_site_occupancy
  Na  Na0  1  0.91807625  0.24816178  0.93967966  1
  Na  Na1  1  0.41807726  0.75183801  0.93970017  1
  Na  Na2  1  0.08192255  0.75183736  0.43969810  1
  Na  Na3  1  0.58192355  0.24816231  0.43967761  1
  I  I4  1  0.91422043  0.25096547  0.43979095  1
  I  I5  1  0.41422056  0.74903484  0.43980231  1
  I  I6  1  0.08577964  0.74903445  0.93980130  1
  I  I7  1  0.58577975  0.25096578  0.93978995  1
