# generated using pymatgen
data_LiBr
_symmetry_space_group_name_H-M   'P 1'
_cell_length_a   11.92433030
_cell_length_b   11.92433725
_cell_length_c   7.30372205
_cell_angle_alpha   90.00094302
_cell_angle_beta   89.99905496
_cell_angle_gamma   120.00307663
_symmetry_Int_Tables_number   1
_chemical_formula_structural   LiBr
_chemical_formula_sum   'Li18 Br18'
_cell_volume   899.35189061
_cell_formula_units_Z   18
loop_
 _symmetry_equiv_pos_site_id
 _symmetry_equiv_pos_as_xyz
  1  'x, y, z'
loop_
 _atom_site_type_symbol
 _atom_site_label
 _atom_site_symmetry_multiplicity
 _atom_site_fract_x
 _atom_site_fract_y
 _atom_site_fract_z
 _atom_site_occupancy
  Li  Li0  1  0.54132609  0.83432162  0.41362513  1
  Li  Li1  1  0.54132149  0.70699637  0.91363568  1
  Li  Li2  1  0.49900943  0.12533903  0.58029476  1
  Li  Li3  1  0.62633946  0.50100334  0.58030619  1
  Li  Li4  1  0.83233053  0.04032747  0.74697320  1
  Li  Li5  1  0.16566393  0.70699378  0.41363800  1
  Li  Li6  1  0.62633807  0.12534462  0.08030372  1
  Li  Li7  1  0.49899656  0.37366038  0.08030622  1
  Li  Li8  1  0.29300427  0.45867754  0.41363671  1
  Li  Li9  1  0.29300649  0.83433661  0.91363809  1
  Li  Li10  1  0.87466055  0.50098964  0.08029348  1
  Li  Li11  1  0.87465544  0.37366286  0.58030287  1
  Li  Li12  1  0.95967003  0.79201268  0.74696690  1
  Li  Li13  1  0.95967239  0.16766821  0.24697203  1
  Li  Li14  1  0.16567764  0.45867374  0.91362582  1
  Li  Li15  1  0.83234549  0.79200784  0.24695785  1
  Li  Li16  1  0.20799320  0.16765600  0.74695849  1
  Li  Li17  1  0.20798805  0.04032962  0.24696708  1
  Br  Br18  1  0.70711339  0.16570140  0.74590686  1
  Br  Br19  1  0.70710999  0.54141040  0.24590343  1
  Br  Br20  1  0.16763161  0.95955356  0.91257255  1
  Br  Br21  1  0.79191524  0.83235963  0.91256765  1
  Br  Br22  1  0.50097369  0.87475137  0.07923427  1
  Br  Br23  1  0.83430693  0.54141799  0.74590126  1
  Br  Br24  1  0.79192259  0.95955620  0.41257018  1
  Br  Br25  1  0.16764034  0.20808451  0.41256673  1
  Br  Br26  1  0.45858941  0.29289013  0.74590319  1
  Br  Br27  1  0.45858221  0.16569289  0.24590100  1
  Br  Br28  1  0.04044664  0.83236815  0.41257280  1
  Br  Br29  1  0.04044361  0.20807724  0.91256976  1
  Br  Br30  1  0.12525637  0.62622373  0.07923564  1
  Br  Br31  1  0.12524864  0.49902617  0.57923377  1
  Br  Br32  1  0.83429873  0.29288668  0.24590684  1
  Br  Br33  1  0.50096524  0.62621999  0.57924020  1
  Br  Br34  1  0.37378009  0.49903506  0.07923999  1
  Br  Br35  1  0.37377619  0.87474357  0.57923615  1
