# generated using pymatgen
data_NaBr
_symmetry_space_group_name_H-M   'P 1'
_cell_length_a   8.76829572
_cell_length_b   5.06427454
_cell_length_c   6.00071333
_cell_angle_alpha   90.00001308
_cell_angle_beta   90.00000076
_cell_angle_gamma   89.99997552
_symmetry_Int_Tables_number   1
_chemical_formula_structural   NaBr
_chemical_formula_sum   'Na4 Br4'
_cell_volume   266.46201596
_cell_formula_units_Z   4
loop_
 _symmetry_equiv_pos_site_id
 _symmetry_equiv_pos_as_xyz
  1  'x, y, z'
loop_
 _atom_site_type_symbol
 _atom_site_label
 _atom_site_symmetry_multiplicity
 _atom_site_fract_x
 _atom_site_fract_y
 _atom_site_fract_z
 _atom_site_occupancy
  Na  Na0  1  0.08498230  0.75045249  0.52700970  1
  Na  Na1  1  0.58498230  0.24954747  0.52701033  1
  Na  Na2  1  0.91501769  0.24954778  0.02700263  1
  Na  Na3  1  0.41501771  0.75045227  0.02700202  1
  Br  Br4  1  0.91772198  0.25064175  0.52751338  1
  Br  Br5  1  0.41772202  0.74935845  0.52751361  1
  Br  Br6  1  0.08227800  0.74935846  0.02751009  1
  Br  Br7  1  0.58227801  0.25064132  0.02750987  1
