# generated using pymatgen
data_LiBr
_symmetry_space_group_name_H-M   'P 1'
_cell_length_a   4.16945872
_cell_length_b   4.16948047
_cell_length_c   10.19641305
_cell_angle_alpha   90.00162533
_cell_angle_beta   89.99854975
_cell_angle_gamma   120.00116312
_symmetry_Int_Tables_number   1
_chemical_formula_structural   LiBr
_chemical_formula_sum   'Li3 Br3'
_cell_volume   153.50926209
_cell_formula_units_Z   3
loop_
 _symmetry_equiv_pos_site_id
 _symmetry_equiv_pos_as_xyz
  1  'x, y, z'
loop_
 _atom_site_type_symbol
 _atom_site_label
 _atom_site_symmetry_multiplicity
 _atom_site_fract_x
 _atom_site_fract_y
 _atom_site_fract_z
 _atom_site_occupancy
  Li  Li0  1  0.32746281  -0.00373515  0.35891894  1
  Li  Li1  1  0.00374355  0.33119058  0.69224626  1
  Li  Li2  1  0.66878020  0.67255219  0.02555766  1
  Br  Br3  1  0.00205832  0.33893373  0.94208278  1
  Br  Br4  1  0.66106391  0.66312070  0.27541894  1
  Br  Br5  1  0.33689122  -0.00206205  0.60875468  1
