# generated using pymatgen
data_LiBr
_symmetry_space_group_name_H-M   'P 1'
_cell_length_a   10.08436017
_cell_length_b   10.08433602
_cell_length_c   11.41865840
_cell_angle_alpha   89.99990033
_cell_angle_beta   90.00004433
_cell_angle_gamma   90.00014879
_symmetry_Int_Tables_number   1
_chemical_formula_structural   LiBr
_chemical_formula_sum   'Li16 Br16'
_cell_volume   1161.20992071
_cell_formula_units_Z   16
loop_
 _symmetry_equiv_pos_site_id
 _symmetry_equiv_pos_as_xyz
  1  'x, y, z'
loop_
 _atom_site_type_symbol
 _atom_site_label
 _atom_site_symmetry_multiplicity
 _atom_site_fract_x
 _atom_site_fract_y
 _atom_site_fract_z
 _atom_site_occupancy
  Li  Li0  1  0.90004611  0.63362131  0.65636406  1
  Li  Li1  1  0.86637959  0.40004545  0.84363592  1
  Li  Li2  1  0.90002135  0.13371041  0.59331748  1
  Li  Li3  1  0.09995425  0.36637987  0.65636334  1
  Li  Li4  1  0.13362120  0.59995417  0.84363642  1
  Li  Li5  1  0.36629004  0.40002157  0.90668266  1
  Li  Li6  1  0.63371020  0.59997887  0.90668278  1
  Li  Li7  1  0.86628945  0.90002174  0.40668259  1
  Li  Li8  1  0.13371012  0.09997875  0.40668214  1
  Li  Li9  1  0.59995385  0.86637894  0.15636402  1
  Li  Li10  1  0.63362146  0.09995403  0.34363562  1
  Li  Li11  1  0.40004495  0.13361988  0.15636364  1
  Li  Li12  1  0.36637927  0.90004504  0.34363772  1
  Li  Li13  1  0.40002180  0.63370928  0.09331781  1
  Li  Li14  1  0.59997819  0.36628974  0.09331706  1
  Li  Li15  1  0.09997814  0.86629093  0.59331746  1
  Br  Br16  1  0.35194559  0.38279135  0.12680216  1
  Br  Br17  1  0.11720755  0.85194610  0.37319790  1
  Br  Br18  1  0.35188926  0.88268098  0.12324547  1
  Br  Br19  1  0.64805427  0.61720751  0.12680226  1
  Br  Br20  1  0.88279183  0.14805464  0.37319776  1
  Br  Br21  1  0.61731776  0.85188987  0.37675536  1
  Br  Br22  1  0.38268313  0.14810924  0.37675548  1
  Br  Br23  1  0.11731799  0.35188984  0.87675502  1
  Br  Br24  1  0.88268281  0.64810966  0.87675571  1
  Br  Br25  1  0.14805453  0.11720914  0.62680169  1
  Br  Br26  1  0.38279211  0.64805453  0.87319775  1
  Br  Br27  1  0.85194515  0.88279206  0.62680287  1
  Br  Br28  1  0.61720784  0.35194599  0.87319714  1
  Br  Br29  1  0.85189026  0.38268302  0.62324448  1
  Br  Br30  1  0.14811033  0.61731873  0.62324472  1
  Br  Br31  1  0.64810961  0.11731738  0.12324352  1
