# generated using pymatgen
data_LiI
_symmetry_space_group_name_H-M   'P 1'
_cell_length_a   8.51329013
_cell_length_b   8.51323400
_cell_length_c   6.00844798
_cell_angle_alpha   89.99962905
_cell_angle_beta   89.99935330
_cell_angle_gamma   89.99990129
_symmetry_Int_Tables_number   1
_chemical_formula_structural   LiI
_chemical_formula_sum   'Li8 I8'
_cell_volume   435.46605857
_cell_formula_units_Z   8
loop_
 _symmetry_equiv_pos_site_id
 _symmetry_equiv_pos_as_xyz
  1  'x, y, z'
loop_
 _atom_site_type_symbol
 _atom_site_label
 _atom_site_symmetry_multiplicity
 _atom_site_fract_x
 _atom_site_fract_y
 _atom_site_fract_z
 _atom_site_occupancy
  Li  Li0  1  0.75154618  0.49894726  0.75021096  1
  Li  Li1  1  0.00105308  0.74845357  0.25020790  1
  Li  Li2  1  0.25154828  0.00105176  0.74979525  1
  Li  Li3  1  -0.00105232  0.25154604  0.25020717  1
  Li  Li4  1  0.74845005  -0.00105271  0.74979725  1
  Li  Li5  1  0.24845262  0.50105339  0.75020738  1
  Li  Li6  1  0.50105357  0.75154832  0.24979119  1
  Li  Li7  1  0.49894801  0.24845241  0.24978767  1
  I  I8  1  -0.00008086  0.75037075  0.75057392  1
  I  I9  1  0.74963256  0.50007918  0.25058144  1
  I  I10  1  0.49991778  0.74963099  0.74942470  1
  I  I11  1  0.25036798  0.49992193  0.25058284  1
  I  I12  1  0.50008184  0.25036795  0.74942506  1
  I  I13  1  0.00008059  0.24962827  0.75057430  1
  I  I14  1  0.24963587  -0.00008342  0.24941582  1
  I  I15  1  0.75036477  0.00008431  0.24941712  1
