# generated using pymatgen
data_KI
_symmetry_space_group_name_H-M   'P 1'
_cell_length_a   9.73367164
_cell_length_b   4.50835455
_cell_length_c   8.49679058
_cell_angle_alpha   89.99997565
_cell_angle_beta   89.99994574
_cell_angle_gamma   89.99999485
_symmetry_Int_Tables_number   1
_chemical_formula_structural   KI
_chemical_formula_sum   'K4 I4'
_cell_volume   372.86332568
_cell_formula_units_Z   4
loop_
 _symmetry_equiv_pos_site_id
 _symmetry_equiv_pos_as_xyz
  1  'x, y, z'
loop_
 _atom_site_type_symbol
 _atom_site_label
 _atom_site_symmetry_multiplicity
 _atom_site_fract_x
 _atom_site_fract_y
 _atom_site_fract_z
 _atom_site_occupancy
  K  K0  1  0.87545394  0.00025199  0.75670341  1
  K  K1  1  0.37545391  -0.00025197  0.75670326  1
  K  K2  1  0.12454584  -0.00025227  0.25670264  1
  K  K3  1  0.62454571  0.00025233  0.25670249  1
  I  I4  1  0.62516802  0.50066681  0.58939241  1
  I  I5  1  0.12516798  0.49933310  0.58939250  1
  I  I6  1  0.37483227  0.49933354  0.08939224  1
  I  I7  1  0.87483232  0.50066647  0.08939233  1
