# generated using pymatgen
data_LiBr
_symmetry_space_group_name_H-M   'P 1'
_cell_length_a   3.86914403
_cell_length_b   6.63685945
_cell_length_c   7.53763714
_cell_angle_alpha   89.99999926
_cell_angle_beta   120.94169401
_cell_angle_gamma   90.00002638
_symmetry_Int_Tables_number   1
_chemical_formula_structural   LiBr
_chemical_formula_sum   'Li4 Br4'
_cell_volume   166.01356848
_cell_formula_units_Z   4
loop_
 _symmetry_equiv_pos_site_id
 _symmetry_equiv_pos_as_xyz
  1  'x, y, z'
loop_
 _atom_site_type_symbol
 _atom_site_label
 _atom_site_symmetry_multiplicity
 _atom_site_fract_x
 _atom_site_fract_y
 _atom_site_fract_z
 _atom_site_occupancy
  Li  Li0  1  0.12052979  0.75307665  0.04107292  1
  Li  Li1  1  0.62052965  0.25307691  0.04107266  1
  Li  Li2  1  0.12053354  0.24692304  0.54107442  1
  Li  Li3  1  0.62053274  0.74692321  0.54107480  1
  Br  Br4  1  0.36866174  0.41642750  0.28988960  1
  Br  Br5  1  0.86866176  0.91642747  0.28988959  1
  Br  Br6  1  0.36866359  0.58357260  0.78988943  1
  Br  Br7  1  0.86866383  0.08357262  0.78988939  1
