# generated using pymatgen
data_LiBr
_symmetry_space_group_name_H-M   'P 1'
_cell_length_a   3.94916718
_cell_length_b   3.95230334
_cell_length_c   13.05911813
_cell_angle_alpha   90.00041502
_cell_angle_beta   90.00020302
_cell_angle_gamma   90.01421942
_symmetry_Int_Tables_number   1
_chemical_formula_structural   LiBr
_chemical_formula_sum   'Li4 Br4'
_cell_volume   203.83071362
_cell_formula_units_Z   4
loop_
 _symmetry_equiv_pos_site_id
 _symmetry_equiv_pos_as_xyz
  1  'x, y, z'
loop_
 _atom_site_type_symbol
 _atom_site_label
 _atom_site_symmetry_multiplicity
 _atom_site_fract_x
 _atom_site_fract_y
 _atom_site_fract_z
 _atom_site_occupancy
  Li  Li0  1  0.49262494  0.50610086  0.95869964  1
  Li  Li1  1  0.50570520  0.50772742  0.70848297  1
  Li  Li2  1  0.50736884  0.49390424  0.45870110  1
  Li  Li3  1  0.49430073  0.49227201  0.20849068  1
  Br  Br4  1  0.49992691  -0.00609736  0.33365895  1
  Br  Br5  1  -0.00575971  0.49990023  0.08366143  1
  Br  Br6  1  0.50007388  0.00609565  0.83366130  1
  Br  Br7  1  0.00575921  0.50009695  0.58366209  1
