# generated using pymatgen
data_LiI
_symmetry_space_group_name_H-M   'P 1'
_cell_length_a   4.46481754
_cell_length_b   4.62718504
_cell_length_c   7.58913193
_cell_angle_alpha   90.00001018
_cell_angle_beta   123.03617026
_cell_angle_gamma   89.99958125
_symmetry_Int_Tables_number   1
_chemical_formula_structural   LiI
_chemical_formula_sum   'Li2 I2'
_cell_volume   131.43950623
_cell_formula_units_Z   2
loop_
 _symmetry_equiv_pos_site_id
 _symmetry_equiv_pos_as_xyz
  1  'x, y, z'
loop_
 _atom_site_type_symbol
 _atom_site_label
 _atom_site_symmetry_multiplicity
 _atom_site_fract_x
 _atom_site_fract_y
 _atom_site_fract_z
 _atom_site_occupancy
  Li  Li0  1  0.39151754  0.25204150  0.80860528  1
  Li  Li1  1  0.39151819  0.74796046  0.30860582  1
  I  I2  1  0.64964527  0.24877408  0.55091234  1
  I  I3  1  0.64964560  0.75122396  0.05091246  1
