# generated using pymatgen
data_KI
_symmetry_space_group_name_H-M   'P 1'
_cell_length_a   9.85943092
_cell_length_b   9.86089019
_cell_length_c   9.45263887
_cell_angle_alpha   90.00000888
_cell_angle_beta   89.99994085
_cell_angle_gamma   120.00953634
_symmetry_Int_Tables_number   1
_chemical_formula_structural   KI
_chemical_formula_sum   'K6 I6'
_cell_volume   795.81098202
_cell_formula_units_Z   6
loop_
 _symmetry_equiv_pos_site_id
 _symmetry_equiv_pos_as_xyz
  1  'x, y, z'
loop_
 _atom_site_type_symbol
 _atom_site_label
 _atom_site_symmetry_multiplicity
 _atom_site_fract_x
 _atom_site_fract_y
 _atom_site_fract_z
 _atom_site_occupancy
  K  K0  1  0.49271448  0.74726554  0.36265855  1
  K  K1  1  0.74548235  0.49274069  0.52930384  1
  K  K2  1  0.25451758  0.50725927  0.02930376  1
  K  K3  1  0.74727164  0.25454855  0.19593223  1
  K  K4  1  0.25272845  0.74545147  0.69593220  1
  K  K5  1  0.50728549  0.25273454  0.86265839  1
  I  I6  1  0.54506359  0.46093033  0.19499422  1
  I  I7  1  0.08416249  0.54502939  0.36167099  1
  I  I8  1  0.91583751  0.45497060  0.86167094  1
  I  I9  1  0.46090547  0.91583669  0.02831661  1
  I  I10  1  0.53909449  0.08416326  0.52831670  1
  I  I11  1  0.45493647  0.53906966  0.69499416  1
