# generated using pymatgen
data_LiBr
_symmetry_space_group_name_H-M   'P 1'
_cell_length_a   11.43707465
_cell_length_b   10.05103056
_cell_length_c   8.59340343
_cell_angle_alpha   90.00002276
_cell_angle_beta   89.99979532
_cell_angle_gamma   90.00484033
_symmetry_Int_Tables_number   1
_chemical_formula_structural   LiBr
_chemical_formula_sum   'Li16 Br16'
_cell_volume   987.84941834
_cell_formula_units_Z   16
loop_
 _symmetry_equiv_pos_site_id
 _symmetry_equiv_pos_as_xyz
  1  'x, y, z'
loop_
 _atom_site_type_symbol
 _atom_site_label
 _atom_site_symmetry_multiplicity
 _atom_site_fract_x
 _atom_site_fract_y
 _atom_site_fract_z
 _atom_site_occupancy
  Li  Li0  1  0.64335560  0.49975021  0.43715286  1
  Li  Li1  1  0.35664426  0.50024911  0.43715079  1
  Li  Li2  1  0.60665533  0.74968509  0.68727638  1
  Li  Li3  1  0.85664520  0.50024802  0.93715007  1
  Li  Li4  1  0.10665359  0.74968558  0.18727572  1
  Li  Li5  1  0.89334616  0.75031631  0.68727815  1
  Li  Li6  1  0.14335452  0.49974964  0.93715321  1
  Li  Li7  1  0.10665448  0.24968552  0.68727528  1
  Li  Li8  1  0.89334550  0.25031640  0.18727883  1
  Li  Li9  1  0.14335539  -0.00025032  0.43715306  1
  Li  Li10  1  0.85664469  0.00024849  0.43715050  1
  Li  Li11  1  0.60665457  0.24968439  0.18727664  1
  Li  Li12  1  0.39334583  0.75031616  0.18727789  1
  Li  Li13  1  0.39334563  0.25031649  0.68727841  1
  Li  Li14  1  0.64335532  -0.00024927  0.93715205  1
  Li  Li15  1  0.35664397  0.00024837  0.93715026  1
  Br  Br16  1  0.25015337  0.55411343  0.18697814  1
  Br  Br17  1  0.74984718  0.44588770  0.18697885  1
  Br  Br18  1  -0.00012815  0.80414715  0.43702079  1
  Br  Br19  1  0.24984534  0.44588795  0.68697801  1
  Br  Br20  1  0.49987140  0.80414825  0.93701976  1
  Br  Br21  1  0.50012841  0.69585190  0.43702048  1
  Br  Br22  1  0.75015330  0.55411324  0.68697931  1
  Br  Br23  1  0.49987210  0.30414809  0.43702121  1
  Br  Br24  1  0.50012871  0.19585201  0.93701987  1
  Br  Br25  1  0.75015275  0.05411232  0.18697922  1
  Br  Br26  1  0.24984566  0.94588766  0.18697794  1
  Br  Br27  1  -0.00012919  0.30414644  0.93701974  1
  Br  Br28  1  0.00012925  0.69585147  0.93701885  1
  Br  Br29  1  0.00012858  0.19585103  0.43701960  1
  Br  Br30  1  0.25015389  0.05411333  0.68697783  1
  Br  Br31  1  0.74984736  0.94588781  0.68697884  1
