# generated using pymatgen
data_KBr
_symmetry_space_group_name_H-M   'P 1'
_cell_length_a   8.98759348
_cell_length_b   8.98867121
_cell_length_c   4.21267588
_cell_angle_alpha   89.99998756
_cell_angle_beta   89.99999972
_cell_angle_gamma   89.99998968
_symmetry_Int_Tables_number   1
_chemical_formula_structural   KBr
_chemical_formula_sum   'K4 Br4'
_cell_volume   340.32743602
_cell_formula_units_Z   4
loop_
 _symmetry_equiv_pos_site_id
 _symmetry_equiv_pos_as_xyz
  1  'x, y, z'
loop_
 _atom_site_type_symbol
 _atom_site_label
 _atom_site_symmetry_multiplicity
 _atom_site_fract_x
 _atom_site_fract_y
 _atom_site_fract_z
 _atom_site_occupancy
  K  K0  1  0.65432170  0.64268389  0.88033099  1
  K  K1  1  0.84567689  0.14268288  0.88033082  1
  K  K2  1  0.34567830  0.35731610  0.88033144  1
  K  K3  1  0.15432310  0.85731711  0.88033136  1
  Br  Br4  1  0.85100604  0.84092348  0.38030600  1
  Br  Br5  1  0.64899258  0.34092232  0.38030600  1
  Br  Br6  1  0.14899396  0.15907653  0.38030678  1
  Br  Br7  1  0.35100743  0.65907769  0.38030682  1
