# generated using pymatgen
data_LiBr
_symmetry_space_group_name_H-M   'P 1'
_cell_length_a   13.83913629
_cell_length_b   13.83913360
_cell_length_c   13.83912978
_cell_angle_alpha   89.99999356
_cell_angle_beta   90.00001256
_cell_angle_gamma   89.99998397
_symmetry_Int_Tables_number   1
_chemical_formula_structural   LiBr
_chemical_formula_sum   'Li48 Br48'
_cell_volume   2650.49305354
_cell_formula_units_Z   48
loop_
 _symmetry_equiv_pos_site_id
 _symmetry_equiv_pos_as_xyz
  1  'x, y, z'
loop_
 _atom_site_type_symbol
 _atom_site_label
 _atom_site_symmetry_multiplicity
 _atom_site_fract_x
 _atom_site_fract_y
 _atom_site_fract_z
 _atom_site_occupancy
  Li  Li0  1  0.79668279  0.08670220  0.90557200  1
  Li  Li1  1  0.59442756  0.29668320  0.08670200  1
  Li  Li2  1  0.40557238  0.20331676  0.08670201  1
  Li  Li3  1  0.59442849  0.70331761  0.41329792  1
  Li  Li4  1  0.40557176  0.79668235  0.41329798  1
  Li  Li5  1  0.08670186  0.59442798  0.29668293  1
  Li  Li6  1  0.91329811  0.90557176  0.29668286  1
  Li  Li7  1  0.79668160  0.91329780  0.59442932  1
  Li  Li8  1  0.29668247  0.58670203  0.40557158  1
  Li  Li9  1  0.09442853  0.79668223  0.58670205  1
  Li  Li10  1  0.09442796  0.70331721  0.08670204  1
  Li  Li11  1  0.41329820  0.90557169  0.20331733  1
  Li  Li12  1  0.09442812  0.29668287  0.41329799  1
  Li  Li13  1  0.90557216  0.79668291  0.08670200  1
  Li  Li14  1  0.90557220  0.20331727  0.41329808  1
  Li  Li15  1  0.58670193  0.59442789  0.20331697  1
  Li  Li16  1  0.41329821  0.09442806  0.29668261  1
  Li  Li17  1  0.91329807  0.59442768  0.79668291  1
  Li  Li18  1  0.08670208  0.90557126  0.79668216  1
  Li  Li19  1  0.70331843  0.91329797  0.40557087  1
  Li  Li20  1  0.20331767  0.91329802  0.09442853  1
  Li  Li21  1  0.08670175  0.40557222  0.20331705  1
  Li  Li22  1  0.91329792  0.09442790  0.20331719  1
  Li  Li23  1  0.29668229  0.08670185  0.59442843  1
  Li  Li24  1  0.29668234  0.91329807  0.90557152  1
  Li  Li25  1  0.70331713  0.58670216  0.90557199  1
  Li  Li26  1  0.58670202  0.40557225  0.29668293  1
  Li  Li27  1  0.20331735  0.41329788  0.90557197  1
  Li  Li28  1  0.20331754  0.58670197  0.59442839  1
  Li  Li29  1  0.90557156  0.70331763  0.58670225  1
  Li  Li30  1  0.09442794  0.20331719  0.91329804  1
  Li  Li31  1  0.90557203  0.29668278  0.91329798  1
  Li  Li32  1  0.58670194  0.09442830  0.79668256  1
  Li  Li33  1  0.41329802  0.40557151  0.79668254  1
  Li  Li34  1  0.58670164  0.90557182  0.70331741  1
  Li  Li35  1  0.41329799  0.59442811  0.70331746  1
  Li  Li36  1  0.70331715  0.08670211  0.09442792  1
  Li  Li37  1  0.29668259  0.41329774  0.09442824  1
  Li  Li38  1  0.79668278  0.58670217  0.09442781  1
  Li  Li39  1  0.79668267  0.41329812  0.40557179  1
  Li  Li40  1  0.20331778  0.08670199  0.40557126  1
  Li  Li41  1  0.70331731  0.41329812  0.59442814  1
  Li  Li42  1  0.40557204  0.70331719  0.91329810  1
  Li  Li43  1  0.59442795  0.79668292  0.91329799  1
  Li  Li44  1  0.40557139  0.29668226  0.58670193  1
  Li  Li45  1  0.59442851  0.20331780  0.58670193  1
  Li  Li46  1  0.91329795  0.40557189  0.70331719  1
  Li  Li47  1  0.08670209  0.09442880  0.70331786  1
  Br  Br48  1  0.36306103  0.80969146  0.06278127  1
  Br  Br49  1  0.43721865  0.86306097  0.80969150  1
  Br  Br50  1  0.56278136  0.63693916  0.80969142  1
  Br  Br51  1  0.43721860  0.13693908  0.69030849  1
  Br  Br52  1  0.56278140  0.36306088  0.69030854  1
  Br  Br53  1  0.80969144  0.43721866  0.86306107  1
  Br  Br54  1  0.19030849  0.06278148  0.86306088  1
  Br  Br55  1  0.36306091  0.19030849  0.43721848  1
  Br  Br56  1  0.86306092  0.30969143  0.56278130  1
  Br  Br57  1  0.93721873  0.36306107  0.30969153  1
  Br  Br58  1  0.93721853  0.13693924  0.80969149  1
  Br  Br59  1  0.69030833  0.06278150  0.63693918  1
  Br  Br60  1  0.93721863  0.86306084  0.69030861  1
  Br  Br61  1  0.06278128  0.36306102  0.80969147  1
  Br  Br62  1  0.06278136  0.63693896  0.69030863  1
  Br  Br63  1  0.30969147  0.43721857  0.63693915  1
  Br  Br64  1  0.69030855  0.93721874  0.86306090  1
  Br  Br65  1  0.19030844  0.43721874  0.36306082  1
  Br  Br66  1  0.80969176  0.06278144  0.36306085  1
  Br  Br67  1  0.13693911  0.19030859  0.56278130  1
  Br  Br68  1  0.63693891  0.19030862  0.93721881  1
  Br  Br69  1  0.80969152  0.56278127  0.63693914  1
  Br  Br70  1  0.19030846  0.93721859  0.63693906  1
  Br  Br71  1  0.86306087  0.80969142  0.43721865  1
  Br  Br72  1  0.86306099  0.19030833  0.06278121  1
  Br  Br73  1  0.13693888  0.30969147  0.06278123  1
  Br  Br74  1  0.30969163  0.56278118  0.86306109  1
  Br  Br75  1  0.63693897  0.69030861  0.06278124  1
  Br  Br76  1  0.63693908  0.30969170  0.43721861  1
  Br  Br77  1  0.06278131  0.13693915  0.30969134  1
  Br  Br78  1  0.93721865  0.63693903  0.19030847  1
  Br  Br79  1  0.06278130  0.86306099  0.19030862  1
  Br  Br80  1  0.30969167  0.93721852  0.36306086  1
  Br  Br81  1  0.69030852  0.56278140  0.36306082  1
  Br  Br82  1  0.30969157  0.06278140  0.13693918  1
  Br  Br83  1  0.69030839  0.43721883  0.13693885  1
  Br  Br84  1  0.13693901  0.80969157  0.93721882  1
  Br  Br85  1  0.86306101  0.69030854  0.93721867  1
  Br  Br86  1  0.36306105  0.30969134  0.93721886  1
  Br  Br87  1  0.36306091  0.69030841  0.56278134  1
  Br  Br88  1  0.63693900  0.80969143  0.56278146  1
  Br  Br89  1  0.13693911  0.69030856  0.43721868  1
  Br  Br90  1  0.56278132  0.13693901  0.19030843  1
  Br  Br91  1  0.43721875  0.36306093  0.19030862  1
  Br  Br92  1  0.56278142  0.86306097  0.30969147  1
  Br  Br93  1  0.43721871  0.63693903  0.30969140  1
  Br  Br94  1  0.19030838  0.56278134  0.13693902  1
  Br  Br95  1  0.80969139  0.93721854  0.13693917  1
