# generated using pymatgen
data_NaI
_symmetry_space_group_name_H-M   'P 1'
_cell_length_a   4.57005088
_cell_length_b   7.87722210
_cell_length_c   7.73543459
_cell_angle_alpha   89.99974385
_cell_angle_beta   89.99992035
_cell_angle_gamma   89.99993330
_symmetry_Int_Tables_number   1
_chemical_formula_structural   NaI
_chemical_formula_sum   'Na4 I4'
_cell_volume   278.47027536
_cell_formula_units_Z   4
loop_
 _symmetry_equiv_pos_site_id
 _symmetry_equiv_pos_as_xyz
  1  'x, y, z'
loop_
 _atom_site_type_symbol
 _atom_site_label
 _atom_site_symmetry_multiplicity
 _atom_site_fract_x
 _atom_site_fract_y
 _atom_site_fract_z
 _atom_site_occupancy
  Na  Na0  1  0.74887689  -0.00018863  0.00039870  1
  Na  Na1  1  0.25112301  0.49980992  0.49960611  1
  Na  Na2  1  0.75112589  0.00019003  0.50039338  1
  Na  Na3  1  0.24887449  0.50018883  -0.00039822  1
  I  I4  1  0.24922749  0.16636572  0.75057864  1
  I  I5  1  0.75077247  0.66637141  0.74942120  1
  I  I6  1  0.25077412  0.83362847  0.25057914  1
  I  I7  1  0.74922564  0.33363426  0.24942105  1
