# generated using pymatgen
data_KI
_symmetry_space_group_name_H-M   'P 1'
_cell_length_a   7.18974699
_cell_length_b   7.17871284
_cell_length_c   7.18733435
_cell_angle_alpha   90.00000688
_cell_angle_beta   89.99999920
_cell_angle_gamma   90.00000782
_symmetry_Int_Tables_number   1
_chemical_formula_structural   KI
_chemical_formula_sum   'K4 I4'
_cell_volume   370.96081538
_cell_formula_units_Z   4
loop_
 _symmetry_equiv_pos_site_id
 _symmetry_equiv_pos_as_xyz
  1  'x, y, z'
loop_
 _atom_site_type_symbol
 _atom_site_label
 _atom_site_symmetry_multiplicity
 _atom_site_fract_x
 _atom_site_fract_y
 _atom_site_fract_z
 _atom_site_occupancy
  K  K0  1  0.74898871  0.25021030  0.52763780  1
  K  K1  1  0.25101145  0.25021005  0.02763779  1
  K  K2  1  0.25101120  0.74978976  0.52763741  1
  K  K3  1  0.74898864  0.74978993  0.02763738  1
  I  I4  1  0.75071046  0.75012335  0.52766800  1
  I  I5  1  0.24928939  0.75012312  0.02766807  1
  I  I6  1  0.24928946  0.24987668  0.52766835  1
  I  I7  1  0.75071068  0.24987682  0.02766829  1
