# generated using pymatgen
data_LiI
_symmetry_space_group_name_H-M   'P 1'
_cell_length_a   12.43903346
_cell_length_b   12.43901707
_cell_length_c   7.34665737
_cell_angle_alpha   89.99983604
_cell_angle_beta   90.00010622
_cell_angle_gamma   120.00203417
_symmetry_Int_Tables_number   1
_chemical_formula_structural   LiI
_chemical_formula_sum   'Li12 I12'
_cell_volume   984.42858202
_cell_formula_units_Z   12
loop_
 _symmetry_equiv_pos_site_id
 _symmetry_equiv_pos_as_xyz
  1  'x, y, z'
loop_
 _atom_site_type_symbol
 _atom_site_label
 _atom_site_symmetry_multiplicity
 _atom_site_fract_x
 _atom_site_fract_y
 _atom_site_fract_z
 _atom_site_occupancy
  Li  Li0  1  0.53506667  0.65302945  0.16511802  1
  Li  Li1  1  0.88202486  0.53505294  0.16511062  1
  Li  Li2  1  0.11794834  0.65305095  0.66511146  1
  Li  Li3  1  0.46494910  0.11797424  0.66511734  1
  Li  Li4  1  0.53505284  0.88202619  0.66511779  1
  Li  Li5  1  0.65303135  0.53506634  0.66511163  1
  Li  Li6  1  0.88205648  0.34695392  0.66512536  1
  Li  Li7  1  0.34697322  0.46493501  0.66512477  1
  Li  Li8  1  0.34695045  0.88205137  0.16511365  1
  Li  Li9  1  0.46493068  0.34696862  0.16511895  1
  Li  Li10  1  0.11797038  0.46494713  0.16512488  1
  Li  Li11  1  0.65304553  0.11794568  0.16512572  1
  I  I12  1  0.68445127  0.55719815  0.04080817  1
  I  I13  1  0.12723083  0.68445539  0.04081327  1
  I  I14  1  -0.12727314  0.55716357  0.54080168  1
  I  I15  1  0.31554667  -0.12722868  0.54081303  1
  I  I16  1  0.68445810  0.12723100  0.54082483  1
  I  I17  1  0.55720172  0.68445500  0.54081417  1
  I  I18  1  0.12727302  0.44283509  0.54081172  1
  I  I19  1  0.44279721  0.31554599  0.54081457  1
  I  I20  1  0.44283485  0.12727236  0.04080762  1
  I  I21  1  0.31554393  0.44279854  0.04082041  1
  I  I22  1  -0.12723061  0.31554275  0.04082288  1
  I  I23  1  0.55716623  -0.12727101  0.04080737  1
