# generated using pymatgen
data_LiBr
_symmetry_space_group_name_H-M   'P 1'
_cell_length_a   6.82369415
_cell_length_b   7.31746546
_cell_length_c   4.30526573
_cell_angle_alpha   90.00009655
_cell_angle_beta   89.99999835
_cell_angle_gamma   89.99997854
_symmetry_Int_Tables_number   1
_chemical_formula_structural   LiBr
_chemical_formula_sum   'Li4 Br4'
_cell_volume   214.97115813
_cell_formula_units_Z   4
loop_
 _symmetry_equiv_pos_site_id
 _symmetry_equiv_pos_as_xyz
  1  'x, y, z'
loop_
 _atom_site_type_symbol
 _atom_site_label
 _atom_site_symmetry_multiplicity
 _atom_site_fract_x
 _atom_site_fract_y
 _atom_site_fract_z
 _atom_site_occupancy
  Li  Li0  1  0.59454000  0.09623447  -0.00486027  1
  Li  Li1  1  0.40545997  0.59623447  0.50486082  1
  Li  Li2  1  0.90546002  0.90376570  0.49513962  1
  Li  Li3  1  0.09453994  0.40376557  0.00485965  1
  Br  Br4  1  0.52621628  0.92197341  0.49582587  1
  Br  Br5  1  0.47378363  0.42197356  0.00417458  1
  Br  Br6  1  -0.02621625  0.07802633  -0.00417417  1
  Br  Br7  1  0.02621641  0.57802650  0.50417389  1
