# generated using pymatgen
data_KI
_symmetry_space_group_name_H-M   'P 1'
_cell_length_a   8.56122644
_cell_length_b   4.93636233
_cell_length_c   8.87698718
_cell_angle_alpha   90.00000002
_cell_angle_beta   90.00000060
_cell_angle_gamma   90.00000030
_symmetry_Int_Tables_number   1
_chemical_formula_structural   KI
_chemical_formula_sum   'K4 I4'
_cell_volume   375.15315774
_cell_formula_units_Z   4
loop_
 _symmetry_equiv_pos_site_id
 _symmetry_equiv_pos_as_xyz
  1  'x, y, z'
loop_
 _atom_site_type_symbol
 _atom_site_label
 _atom_site_symmetry_multiplicity
 _atom_site_fract_x
 _atom_site_fract_y
 _atom_site_fract_z
 _atom_site_occupancy
  K  K0  1  0.58294874  0.00134193  0.50108183  1
  K  K1  1  0.41705128  0.50134191  -0.00108193  1
  K  K2  1  0.91705125  -0.00134191  0.00108203  1
  K  K3  1  0.08294876  0.49865809  0.49891805  1
  I  I4  1  0.25093642  0.00063546  0.24913001  1
  I  I5  1  0.74906357  0.50063541  0.25086992  1
  I  I6  1  0.24906355  -0.00063543  0.74913014  1
  I  I7  1  0.75093644  0.49936455  0.75086994  1
