# generated using pymatgen
data_LiI
_symmetry_space_group_name_H-M   'P 1'
_cell_length_a   15.59301844
_cell_length_b   15.59294716
_cell_length_c   5.38839940
_cell_angle_alpha   89.99944332
_cell_angle_beta   90.00529452
_cell_angle_gamma   89.99837494
_symmetry_Int_Tables_number   1
_chemical_formula_structural   LiI
_chemical_formula_sum   'Li16 I16'
_cell_volume   1310.14141900
_cell_formula_units_Z   16
loop_
 _symmetry_equiv_pos_site_id
 _symmetry_equiv_pos_as_xyz
  1  'x, y, z'
loop_
 _atom_site_type_symbol
 _atom_site_label
 _atom_site_symmetry_multiplicity
 _atom_site_fract_x
 _atom_site_fract_y
 _atom_site_fract_z
 _atom_site_occupancy
  Li  Li0  1  0.07313121  0.92694059  0.49356010  1
  Li  Li1  1  0.42693147  0.07313042  0.74353613  1
  Li  Li2  1  0.92688753  0.92693947  -0.00647991  1
  Li  Li3  1  0.92687766  0.07305128  0.49351590  1
  Li  Li4  1  0.57304839  0.92687088  0.74356422  1
  Li  Li5  1  0.07304455  0.57313231  0.74357386  1
  Li  Li6  1  0.92694125  0.42687393  0.74353439  1
  Li  Li7  1  0.57304394  0.07313131  0.24357234  1
  Li  Li8  1  0.42694142  0.92686887  0.24353316  1
  Li  Li9  1  0.42687374  0.57304862  -0.00646976  1
  Li  Li10  1  0.07304962  0.42687832  0.24356684  1
  Li  Li11  1  0.57314510  0.42694448  -0.00642766  1
  Li  Li12  1  0.92693018  0.57312963  0.24353720  1
  Li  Li13  1  0.42688232  0.42694482  0.49353342  1
  Li  Li14  1  0.57314173  0.57305496  0.49356552  1
  Li  Li15  1  0.07312948  0.07305735  -0.00644832  1
  I  I16  1  0.39466399  0.39445544  -0.00619501  1
  I  I17  1  0.89445649  0.39464779  0.24380412  1
  I  I18  1  0.60537166  0.39446267  0.49386649  1
  I  I19  1  0.60536135  0.60553869  -0.00612726  1
  I  I20  1  0.10552156  0.60536327  0.24387367  1
  I  I21  1  0.60553770  0.89465002  0.24385891  1
  I  I22  1  0.39444470  0.10535029  0.24381783  1
  I  I23  1  0.10553772  0.39465393  0.74386131  1
  I  I24  1  0.89444500  0.60535579  0.74381935  1
  I  I25  1  0.10535955  0.10553512  0.49385888  1
  I  I26  1  0.60552317  0.10535566  0.74387133  1
  I  I27  1  0.89465448  0.89445644  0.49378948  1
  I  I28  1  0.39445417  0.89464698  0.74380279  1
  I  I29  1  0.10537185  0.89446483  -0.00614843  1
  I  I30  1  0.89464400  0.10553004  -0.00620444  1
  I  I31  1  0.39465304  0.60553581  0.49380768  1
