# generated using pymatgen
data_LiBr
_symmetry_space_group_name_H-M   'P 1'
_cell_length_a   4.25831817
_cell_length_b   4.25872091
_cell_length_c   9.54597128
_cell_angle_alpha   90.00639460
_cell_angle_beta   89.99546661
_cell_angle_gamma   120.00364693
_symmetry_Int_Tables_number   1
_chemical_formula_structural   LiBr
_chemical_formula_sum   'Li3 Br3'
_cell_volume   149.91741282
_cell_formula_units_Z   3
loop_
 _symmetry_equiv_pos_site_id
 _symmetry_equiv_pos_as_xyz
  1  'x, y, z'
loop_
 _atom_site_type_symbol
 _atom_site_label
 _atom_site_symmetry_multiplicity
 _atom_site_fract_x
 _atom_site_fract_y
 _atom_site_fract_z
 _atom_site_occupancy
  Li  Li0  1  0.66546212  0.66248191  0.88537012  1
  Li  Li1  1  0.33748455  0.00285825  0.55150872  1
  Li  Li2  1  -0.00293317  0.33470604  0.21888090  1
  Br  Br3  1  0.00395747  0.33597999  0.48170382  1
  Br  Br4  1  0.66391824  0.66800916  0.14825600  1
  Br  Br5  1  0.33211080  0.99596463  0.81458785  1
