# generated using pymatgen
data_LiBr
_symmetry_space_group_name_H-M   'P 1'
_cell_length_a   11.93453369
_cell_length_b   11.93453365
_cell_length_c   7.29246563
_cell_angle_alpha   90.00079794
_cell_angle_beta   89.99920892
_cell_angle_gamma   120.00334070
_symmetry_Int_Tables_number   1
_chemical_formula_structural   LiBr
_chemical_formula_sum   'Li18 Br18'
_cell_volume   899.50029447
_cell_formula_units_Z   18
loop_
 _symmetry_equiv_pos_site_id
 _symmetry_equiv_pos_as_xyz
  1  'x, y, z'
loop_
 _atom_site_type_symbol
 _atom_site_label
 _atom_site_symmetry_multiplicity
 _atom_site_fract_x
 _atom_site_fract_y
 _atom_site_fract_z
 _atom_site_occupancy
  Li  Li0  1  0.79118231  0.83250774  0.82790193  1
  Li  Li1  1  0.79118818  0.95867403  0.32790605  1
  Li  Li2  1  0.50077622  0.87546854  -0.00549738  1
  Li  Li3  1  0.37469085  0.49922866  -0.00549868  1
  Li  Li4  1  0.83404575  0.29188667  0.16127810  1
  Li  Li5  1  0.16748804  0.95866573  0.82789912  1
  Li  Li6  1  0.37469415  0.87546339  0.49450397  1
  Li  Li7  1  0.50077173  0.62531003  0.49450051  1
  Li  Li8  1  0.04132487  0.20881064  0.82790735  1
  Li  Li9  1  0.04133410  0.83251197  0.32789886  1
  Li  Li10  1  0.12453188  0.49922398  0.49450408  1
  Li  Li11  1  0.12453764  0.62530517  -0.00549467  1
  Li  Li12  1  0.70811835  0.54215698  0.16128422  1
  Li  Li13  1  0.70811333  0.16595440  0.66127740  1
  Li  Li14  1  0.16749237  0.20881734  0.32790324  1
  Li  Li15  1  0.83403778  0.54215780  0.66128556  1
  Li  Li16  1  0.45784246  0.16596250  0.16128578  1
  Li  Li17  1  0.45784285  0.29188315  0.66128456  1
  Br  Br18  1  0.29205389  0.83368175  0.82874680  1
  Br  Br19  1  0.29205491  0.45837329  0.32873901  1
  Br  Br20  1  0.49967690  0.37461919  -0.00454892  1
  Br  Br21  1  0.87494180  0.50032552  -0.00455562  1
  Br  Br22  1  0.83300624  0.79172663  0.16214182  1
  Br  Br23  1  0.16631012  0.45836404  0.82873974  1
  Br  Br24  1  0.87493441  0.37461632  0.49544151  1
  Br  Br25  1  0.49967406  0.12505911  0.49544521  1
  Br  Br26  1  0.54162645  0.70794520  0.82873802  1
  Br  Br27  1  0.54163498  0.83368996  0.32873862  1
  Br  Br28  1  0.62538120  0.50032378  0.49545077  1
  Br  Br29  1  0.62538378  0.12506571  -0.00455861  1
  Br  Br30  1  0.20827201  0.04127803  0.16213970  1
  Br  Br31  1  0.20827295  0.16699357  0.66214302  1
  Br  Br32  1  0.16631763  0.70794588  0.32874735  1
  Br  Br33  1  0.83300342  0.04127911  0.66215339  1
  Br  Br34  1  0.95872054  0.16699589  0.16215438  1
  Br  Br35  1  0.95872183  0.79172827  0.66213949  1
