# generated using pymatgen
data_LiBr
_symmetry_space_group_name_H-M   'P 1'
_cell_length_a   11.35996230
_cell_length_b   11.35996560
_cell_length_c   8.00631129
_cell_angle_alpha   89.99689979
_cell_angle_beta   90.00302590
_cell_angle_gamma   119.99734304
_symmetry_Int_Tables_number   1
_chemical_formula_structural   LiBr
_chemical_formula_sum   'Li18 Br18'
_cell_volume   894.80548131
_cell_formula_units_Z   18
loop_
 _symmetry_equiv_pos_site_id
 _symmetry_equiv_pos_as_xyz
  1  'x, y, z'
loop_
 _atom_site_type_symbol
 _atom_site_label
 _atom_site_symmetry_multiplicity
 _atom_site_fract_x
 _atom_site_fract_y
 _atom_site_fract_z
 _atom_site_occupancy
  Li  Li0  1  0.53512901  0.07106471  0.71053524  1
  Li  Li1  1  0.53511594  0.46405249  0.21062654  1
  Li  Li2  1  0.26227052  0.13153630  0.87720321  1
  Li  Li3  1  0.86928434  0.73774634  0.87719170  1
  Li  Li4  1  0.59558866  0.79738625  0.04386062  1
  Li  Li5  1  -0.07107953  0.46404820  0.71052216  1
  Li  Li6  1  0.86928026  0.13154869  0.37729407  1
  Li  Li7  1  0.26225098  0.13071489  0.37719358  1
  Li  Li8  1  0.53595137  0.46488791  0.71062456  1
  Li  Li9  1  0.53594795  0.07107782  0.21052861  1
  Li  Li10  1  0.86846521  0.73773155  0.37720396  1
  Li  Li11  1  0.86844908  0.13071958  0.87729301  1
  Li  Li12  1  0.20261249  0.79821745  0.04395893  1
  Li  Li13  1  0.20262004  0.40441405  0.54385791  1
  Li  Li14  1  -0.07106507  0.46486589  0.21053769  1
  Li  Li15  1  0.59560261  0.79820247  0.54386717  1
  Li  Li16  1  0.20179883  0.40439672  0.04387177  1
  Li  Li17  1  0.20178150  0.79738397  0.54396025  1
  Br  Br18  1  0.78694196  0.21275534  0.63595398  1
  Br  Br19  1  0.78702044  0.57421212  0.13594083  1
  Br  Br20  1  0.12058062  0.87972647  0.80261991  1
  Br  Br21  1  0.75912220  0.87944859  0.80268100  1
  Br  Br22  1  0.45388371  0.90754475  0.96934545  1
  Br  Br23  1  0.78721663  0.57421249  0.63601826  1
  Br  Br24  1  0.75911804  0.87964488  0.30261410  1
  Br  Br25  1  0.12055037  0.24088018  0.30267713  1
  Br  Br26  1  0.42578425  0.21297521  0.63595210  1
  Br  Br27  1  0.42578797  0.21278350  0.13601028  1
  Br  Br28  1  0.12027548  0.87942223  0.30261243  1
  Br  Br29  1  0.12035278  0.24088231  0.80261730  1
  Br  Br30  1  0.09245109  0.54631324  0.96927792  1
  Br  Br31  1  0.09245460  0.54611607  0.46934947  1
  Br  Br32  1  0.78724411  0.21305826  0.13594521  1
  Br  Br33  1  0.45391109  0.54639035  0.46928388  1
  Br  Br34  1  0.45360921  0.54608939  0.96928080  1
  Br  Br35  1  0.45369125  0.90754932  0.46928209  1
