# generated using pymatgen
data_NaI
_symmetry_space_group_name_H-M   'P 1'
_cell_length_a   5.19462452
_cell_length_b   8.07185064
_cell_length_c   10.31030617
_cell_angle_alpha   90.00751016
_cell_angle_beta   119.93209376
_cell_angle_gamma   90.00145464
_symmetry_Int_Tables_number   1
_chemical_formula_structural   NaI
_chemical_formula_sum   'Na4 I4'
_cell_volume   374.65042816
_cell_formula_units_Z   4
loop_
 _symmetry_equiv_pos_site_id
 _symmetry_equiv_pos_as_xyz
  1  'x, y, z'
loop_
 _atom_site_type_symbol
 _atom_site_label
 _atom_site_symmetry_multiplicity
 _atom_site_fract_x
 _atom_site_fract_y
 _atom_site_fract_z
 _atom_site_occupancy
  Na  Na0  1  0.31111989  0.65785518  0.81244055  1
  Na  Na1  1  0.68901816  0.15792843  0.68764656  1
  Na  Na2  1  0.68887962  0.34214492  0.18755947  1
  Na  Na3  1  0.31098218  0.84207152  0.31235334  1
  I  I4  1  0.34281883  0.22703605  0.34331896  1
  I  I5  1  0.65713991  0.72700358  0.15668339  1
  I  I6  1  0.65718171  0.77296393  0.65668122  1
  I  I7  1  0.34285971  0.27299639  0.84331651  1
