# generated using pymatgen
data_NaI
_symmetry_space_group_name_H-M   'P 1'
_cell_length_a   4.65456892
_cell_length_b   4.65433736
_cell_length_c   12.56517986
_cell_angle_alpha   90.00002177
_cell_angle_beta   89.99981139
_cell_angle_gamma   90.07133390
_symmetry_Int_Tables_number   1
_chemical_formula_structural   NaI
_chemical_formula_sum   'Na4 I4'
_cell_volume   272.21101684
_cell_formula_units_Z   4
loop_
 _symmetry_equiv_pos_site_id
 _symmetry_equiv_pos_as_xyz
  1  'x, y, z'
loop_
 _atom_site_type_symbol
 _atom_site_label
 _atom_site_symmetry_multiplicity
 _atom_site_fract_x
 _atom_site_fract_y
 _atom_site_fract_z
 _atom_site_occupancy
  Na  Na0  1  -0.00340829  0.50416539  0.77273212  1
  Na  Na1  1  0.50308400  0.00376874  0.02519797  1
  Na  Na2  1  0.00340848  0.49583461  0.27273251  1
  Na  Na3  1  0.49691587  -0.00376925  0.52519855  1
  I  I4  1  -0.00239535  0.49773374  0.52375812  1
  I  I5  1  0.49929352  0.00310730  0.77446208  1
  I  I6  1  0.00239517  0.50226643  0.02375779  1
  I  I7  1  0.50070659  -0.00310695  0.27446149  1
