# generated using pymatgen
data_LiBr
_symmetry_space_group_name_H-M   'P 1'
_cell_length_a   7.25208306
_cell_length_b   7.24822410
_cell_length_c   3.86114411
_cell_angle_alpha   89.99991424
_cell_angle_beta   89.99998755
_cell_angle_gamma   89.99611214
_symmetry_Int_Tables_number   1
_chemical_formula_structural   LiBr
_chemical_formula_sum   'Li4 Br4'
_cell_volume   202.95997119
_cell_formula_units_Z   4
loop_
 _symmetry_equiv_pos_site_id
 _symmetry_equiv_pos_as_xyz
  1  'x, y, z'
loop_
 _atom_site_type_symbol
 _atom_site_label
 _atom_site_symmetry_multiplicity
 _atom_site_fract_x
 _atom_site_fract_y
 _atom_site_fract_z
 _atom_site_occupancy
  Li  Li0  1  0.83860426  0.33755696  0.39419318  1
  Li  Li1  1  0.33769964  0.16155640  0.64297571  1
  Li  Li2  1  0.16139541  0.66244315  0.89419666  1
  Li  Li3  1  0.66230004  0.83844324  0.14297173  1
  Br  Br4  1  0.82948574  0.67101857  0.64290776  1
  Br  Br5  1  0.67069290  0.17081746  0.89373815  1
  Br  Br6  1  0.17051464  0.32898154  0.14290976  1
  Br  Br7  1  0.32930737  0.82918269  0.39373914  1
