# generated using pymatgen
data_KI
_symmetry_space_group_name_H-M   'P 1'
_cell_length_a   9.77292552
_cell_length_b   4.51212617
_cell_length_c   8.47329088
_cell_angle_alpha   89.99999993
_cell_angle_beta   90.00002808
_cell_angle_gamma   90.00000022
_symmetry_Int_Tables_number   1
_chemical_formula_structural   KI
_chemical_formula_sum   'K4 I4'
_cell_volume   373.64393686
_cell_formula_units_Z   4
loop_
 _symmetry_equiv_pos_site_id
 _symmetry_equiv_pos_as_xyz
  1  'x, y, z'
loop_
 _atom_site_type_symbol
 _atom_site_label
 _atom_site_symmetry_multiplicity
 _atom_site_fract_x
 _atom_site_fract_y
 _atom_site_fract_z
 _atom_site_occupancy
  K  K0  1  0.37569174  0.50040459  0.15625463  1
  K  K1  1  0.87569144  0.49959542  0.15625476  1
  K  K2  1  0.62430810  0.49959565  0.65625270  1
  K  K3  1  0.12430790  0.50040442  0.65625319  1
  I  I4  1  0.62611401  -0.00204771  0.98925604  1
  I  I5  1  0.12611411  0.00204767  0.98925565  1
  I  I6  1  0.37388641  0.00204798  0.48925506  1
  I  I7  1  0.87388629  -0.00204803  0.48925528  1
