# generated using pymatgen
data_LiI
_symmetry_space_group_name_H-M   'P 1'
_cell_length_a   7.33573907
_cell_length_b   4.34473375
_cell_length_c   6.73197952
_cell_angle_alpha   89.99885858
_cell_angle_beta   90.00018453
_cell_angle_gamma   89.99886724
_symmetry_Int_Tables_number   1
_chemical_formula_structural   LiI
_chemical_formula_sum   'Li4 I4'
_cell_volume   214.56052773
_cell_formula_units_Z   4
loop_
 _symmetry_equiv_pos_site_id
 _symmetry_equiv_pos_as_xyz
  1  'x, y, z'
loop_
 _atom_site_type_symbol
 _atom_site_label
 _atom_site_symmetry_multiplicity
 _atom_site_fract_x
 _atom_site_fract_y
 _atom_site_fract_z
 _atom_site_occupancy
  Li  Li0  1  0.24758834  0.74925446  0.88207623  1
  Li  Li1  1  0.74758087  0.25072266  0.88207459  1
  Li  Li2  1  0.75241898  0.25074689  0.38207412  1
  Li  Li3  1  0.25241162  0.74927819  0.38207649  1
  I  I4  1  0.08222844  0.25048912  0.63245317  1
  I  I5  1  0.58222823  0.74950791  0.63245123  1
  I  I6  1  0.91777194  0.74950979  0.13245130  1
  I  I7  1  0.41777158  0.25049098  0.13245300  1
