# generated using pymatgen
data_LiBr
_symmetry_space_group_name_H-M   'P 1'
_cell_length_a   13.05456299
_cell_length_b   13.05471479
_cell_length_c   13.05451485
_cell_angle_alpha   90.00029669
_cell_angle_beta   90.00013370
_cell_angle_gamma   90.00018401
_symmetry_Int_Tables_number   1
_chemical_formula_structural   LiBr
_chemical_formula_sum   'Li24 Br24'
_cell_volume   2224.79737162
_cell_formula_units_Z   24
loop_
 _symmetry_equiv_pos_site_id
 _symmetry_equiv_pos_as_xyz
  1  'x, y, z'
loop_
 _atom_site_type_symbol
 _atom_site_label
 _atom_site_symmetry_multiplicity
 _atom_site_fract_x
 _atom_site_fract_y
 _atom_site_fract_z
 _atom_site_occupancy
  Li  Li0  1  0.17545578  0.05458319  0.49126450  1
  Li  Li1  1  0.67546257  0.44542009  0.50873259  1
  Li  Li2  1  -0.00873428  0.17546022  0.44541995  1
  Li  Li3  1  -0.00872803  0.32453853  0.94541704  1
  Li  Li4  1  0.55458069  0.00873068  0.82453680  1
  Li  Li5  1  0.49126798  0.17546037  0.05458514  1
  Li  Li6  1  0.50873579  0.67545596  0.44542050  1
  Li  Li7  1  0.00873188  0.82454164  0.55457667  1
  Li  Li8  1  0.94541429  -0.00872672  0.32453677  1
  Li  Li9  1  0.05457942  0.49126908  0.17546411  1
  Li  Li10  1  0.44541404  0.50872846  0.67546569  1
  Li  Li11  1  0.82454086  0.55458088  0.00873117  1
  Li  Li12  1  0.32453786  0.94541647  -0.00873121  1
  Li  Li13  1  0.50873315  0.82454455  0.94542107  1
  Li  Li14  1  0.49126939  0.32454386  0.55457865  1
  Li  Li15  1  0.00873002  0.67545860  0.05458509  1
  Li  Li16  1  0.44541704  -0.00873168  0.17545956  1
  Li  Li17  1  0.05457845  0.00873138  0.67545922  1
  Li  Li18  1  0.94542345  0.50873154  0.82454004  1
  Li  Li19  1  0.55458932  0.49127022  0.32453777  1
  Li  Li20  1  0.17545651  0.44542409  -0.00873138  1
  Li  Li21  1  0.67545720  0.05458009  0.00872978  1
  Li  Li22  1  0.82453936  0.94541511  0.50873118  1
  Li  Li23  1  0.32454560  0.55457500  0.49126653  1
  Br  Br24  1  0.67914275  0.60618204  0.41333006  1
  Br  Br25  1  0.17913824  0.89381996  0.58667115  1
  Br  Br26  1  0.91333111  0.67913942  0.89382152  1
  Br  Br27  1  0.91333007  0.82086180  0.39381440  1
  Br  Br28  1  0.10617490  0.08667375  0.32086060  1
  Br  Br29  1  0.41332818  0.67913554  0.60618152  1
  Br  Br30  1  0.58666928  0.17913979  0.89382043  1
  Br  Br31  1  0.08667084  0.32086271  0.10617959  1
  Br  Br32  1  0.39382067  0.91332804  0.82086260  1
  Br  Br33  1  0.60617844  0.41333119  0.67913940  1
  Br  Br34  1  0.89381607  0.58666792  0.17913787  1
  Br  Br35  1  0.32086199  0.10618133  0.08667159  1
  Br  Br36  1  0.82086377  0.39381733  0.91332544  1
  Br  Br37  1  0.58667622  0.32086184  0.39381829  1
  Br  Br38  1  0.41332633  0.82086064  0.10618222  1
  Br  Br39  1  0.08666892  0.17913991  0.60618004  1
  Br  Br40  1  0.89381944  0.91332636  0.67913539  1
  Br  Br41  1  0.60617975  0.08666922  0.17913971  1
  Br  Br42  1  0.39382660  0.58666843  0.32086086  1
  Br  Br43  1  0.10618358  0.41332986  0.82086159  1
  Br  Br44  1  0.67913860  0.89381985  0.91332401  1
  Br  Br45  1  0.17913704  0.60618452  0.08667872  1
  Br  Br46  1  0.32086175  0.39381474  0.58667332  1
  Br  Br47  1  0.82085711  0.10618223  0.41333245  1
