# generated using pymatgen
data_LiBr
_symmetry_space_group_name_H-M   'P 1'
_cell_length_a   11.00062683
_cell_length_b   11.00076363
_cell_length_c   5.50836117
_cell_angle_alpha   89.99998701
_cell_angle_beta   89.99996191
_cell_angle_gamma   89.99998457
_symmetry_Int_Tables_number   1
_chemical_formula_structural   LiBr
_chemical_formula_sum   'Li16 Br16'
_cell_volume   666.59595556
_cell_formula_units_Z   16
loop_
 _symmetry_equiv_pos_site_id
 _symmetry_equiv_pos_as_xyz
  1  'x, y, z'
loop_
 _atom_site_type_symbol
 _atom_site_label
 _atom_site_symmetry_multiplicity
 _atom_site_fract_x
 _atom_site_fract_y
 _atom_site_fract_z
 _atom_site_occupancy
  Li  Li0  1  0.12457627  0.12500036  0.25070274  1
  Li  Li1  1  0.87542502  0.87499964  0.25069912  1
  Li  Li2  1  0.37542352  0.12500084  0.75070215  1
  Li  Li3  1  0.37542420  0.37499962  0.25070043  1
  Li  Li4  1  0.87542382  0.62500062  0.75070203  1
  Li  Li5  1  0.37542394  0.62500076  0.74929809  1
  Li  Li6  1  0.62457645  0.62500080  0.25070327  1
  Li  Li7  1  0.62457597  0.37499946  0.74929760  1
  Li  Li8  1  0.12457558  0.37499966  0.75069916  1
  Li  Li9  1  0.87542398  0.37499916  0.24929824  1
  Li  Li10  1  0.12457599  0.62500010  0.24930200  1
  Li  Li11  1  0.12457490  0.87499986  0.74930039  1
  Li  Li12  1  0.87542368  0.12500030  0.74929817  1
  Li  Li13  1  0.62457505  0.87499954  0.75069754  1
  Li  Li14  1  0.37542472  0.87499965  0.24930047  1
  Li  Li15  1  0.62457649  0.12500090  0.24929759  1
  Br  Br16  1  0.62507806  0.12495102  0.75001395  1
  Br  Br17  1  0.37492181  0.87504895  0.75001478  1
  Br  Br18  1  0.87492214  0.12495094  0.25001413  1
  Br  Br19  1  0.87492188  0.37504875  0.75001407  1
  Br  Br20  1  0.37492210  0.62495098  0.25001480  1
  Br  Br21  1  0.87492204  0.62495091  0.24998610  1
  Br  Br22  1  0.12507792  0.62495103  0.75001550  1
  Br  Br23  1  0.12507806  0.37504872  0.24998539  1
  Br  Br24  1  0.62507821  0.37504884  0.25001408  1
  Br  Br25  1  0.37492186  0.37504888  0.74998517  1
  Br  Br26  1  0.62507808  0.62495101  0.74998595  1
  Br  Br27  1  0.62507830  0.87504894  0.24998476  1
  Br  Br28  1  0.37492212  0.12495103  0.24998597  1
  Br  Br29  1  0.12507815  0.87504884  0.25001520  1
  Br  Br30  1  0.87492183  0.87504886  0.74998489  1
  Br  Br31  1  0.12507787  0.12495101  0.74998625  1
