# generated using pymatgen
data_LiBr
_symmetry_space_group_name_H-M   'P 1'
_cell_length_a   5.21075772
_cell_length_b   5.46575895
_cell_length_c   6.07025264
_cell_angle_alpha   90.00066911
_cell_angle_beta   90.00001906
_cell_angle_gamma   89.99999396
_symmetry_Int_Tables_number   1
_chemical_formula_structural   LiBr
_chemical_formula_sum   'Li4 Br4'
_cell_volume   172.88532137
_cell_formula_units_Z   4
loop_
 _symmetry_equiv_pos_site_id
 _symmetry_equiv_pos_as_xyz
  1  'x, y, z'
loop_
 _atom_site_type_symbol
 _atom_site_label
 _atom_site_symmetry_multiplicity
 _atom_site_fract_x
 _atom_site_fract_y
 _atom_site_fract_z
 _atom_site_occupancy
  Li  Li0  1  -0.00065781  0.74983594  0.14096350  1
  Li  Li1  1  0.49934282  0.25016370  0.14096321  1
  Li  Li2  1  0.00065880  0.25016298  0.64096328  1
  Li  Li3  1  0.50065748  0.74983586  0.64096348  1
  Br  Br4  1  -0.00029820  0.25008398  0.07190044  1
  Br  Br5  1  0.49970183  0.74991685  0.07190007  1
  Br  Br6  1  0.00029745  0.74991683  0.57190021  1
  Br  Br7  1  0.50029763  0.25008386  0.57190124  1
