# generated using pymatgen
data_LiBr
_symmetry_space_group_name_H-M   'P 1'
_cell_length_a   6.35886920
_cell_length_b   5.47464941
_cell_length_c   6.38154293
_cell_angle_alpha   90.00052823
_cell_angle_beta   89.99982297
_cell_angle_gamma   89.99986920
_symmetry_Int_Tables_number   1
_chemical_formula_structural   LiBr
_chemical_formula_sum   'Li4 Br4'
_cell_volume   222.15797081
_cell_formula_units_Z   4
loop_
 _symmetry_equiv_pos_site_id
 _symmetry_equiv_pos_as_xyz
  1  'x, y, z'
loop_
 _atom_site_type_symbol
 _atom_site_label
 _atom_site_symmetry_multiplicity
 _atom_site_fract_x
 _atom_site_fract_y
 _atom_site_fract_z
 _atom_site_occupancy
  Li  Li0  1  0.75005857  -0.00049932  0.41143371  1
  Li  Li1  1  0.25006014  0.00050025  0.41143354  1
  Li  Li2  1  0.24993847  0.00049759  0.91143434  1
  Li  Li3  1  0.74994027  -0.00049705  0.91143376  1
  Br  Br4  1  0.99994981  0.78187958  0.66177844  1
  Br  Br5  1  0.49995022  0.21811977  0.66177580  1
  Br  Br6  1  0.00005154  0.21811880  0.16177539  1
  Br  Br7  1  0.50005099  0.78188039  0.16177734  1
