# generated using pymatgen
data_LiBr
_symmetry_space_group_name_H-M   'P 1'
_cell_length_a   11.55785409
_cell_length_b   11.55784352
_cell_length_c   7.81953762
_cell_angle_alpha   90.00527326
_cell_angle_beta   89.99479532
_cell_angle_gamma   120.00649781
_symmetry_Int_Tables_number   1
_chemical_formula_structural   LiBr
_chemical_formula_sum   'Li18 Br18'
_cell_volume   904.55979497
_cell_formula_units_Z   18
loop_
 _symmetry_equiv_pos_site_id
 _symmetry_equiv_pos_as_xyz
  1  'x, y, z'
loop_
 _atom_site_type_symbol
 _atom_site_label
 _atom_site_symmetry_multiplicity
 _atom_site_fract_x
 _atom_site_fract_y
 _atom_site_fract_z
 _atom_site_occupancy
  Li  Li0  1  0.53536731  0.07405149  0.89342933  1
  Li  Li1  1  0.53538397  0.46134979  0.39347898  1
  Li  Li2  1  0.25941383  0.13144347  0.05990086  1
  Li  Li3  1  0.87197586  0.74056625  0.05986200  1
  Li  Li4  1  0.59279158  0.79470179  0.22638035  1
  Li  Li5  1  0.92599280  0.46136304  0.89336106  1
  Li  Li6  1  0.87198200  0.13138714  0.56003817  1
  Li  Li7  1  0.25943195  0.12802594  0.55985782  1
  Li  Li8  1  0.53864516  0.46461207  0.89347165  1
  Li  Li9  1  0.53862590  0.07400494  0.39337202  1
  Li  Li10  1  -0.13144811  0.74057834  0.55989909  1
  Li  Li11  1  -0.13138250  0.12802457  0.06003359  1
  Li  Li12  1  0.20531326  0.79808763  0.22650165  1
  Li  Li13  1  0.20530794  0.40721308  0.72636587  1
  Li  Li14  1  0.92594634  0.46463514  0.39341496  1
  Li  Li15  1  0.59276208  0.79811492  0.72641824  1
  Li  Li16  1  0.20188590  0.40724297  0.22640201  1
  Li  Li17  1  0.20191334  0.79468809  0.72649974  1
  Br  Br18  1  0.78551932  0.21175577  0.81941786  1
  Br  Br19  1  0.78549555  0.57373504  0.31927894  1
  Br  Br20  1  0.12161053  0.88120601  0.98586038  1
  Br  Br21  1  0.75962625  0.87840788  0.98572451  1
  Br  Br22  1  0.45500318  0.90717510  0.15259930  1
  Br  Br23  1  0.78823675  0.57371961  0.81924574  1
  Br  Br24  1  0.75959036  0.88119296  0.48574938  1
  Br  Br25  1  0.12159362  0.24037336  0.48571772  1
  Br  Br26  1  0.42625998  0.21449648  0.81927906  1
  Br  Br27  1  0.42628056  0.21176448  0.31924262  1
  Br  Br28  1  0.11879508  0.87838559  0.48585404  1
  Br  Br29  1  0.11880924  0.24041280  0.98573655  1
  Br  Br30  1  0.09277185  0.54779177  0.15262925  1
  Br  Br31  1  0.09282693  0.54499565  0.65259724  1
  Br  Br32  1  0.78824084  0.21447275  0.31941874  1
  Br  Br33  1  0.45501131  0.54779962  0.65270850  1
  Br  Br34  1  0.45220689  0.54499471  0.15271357  1
  Br  Br35  1  0.45221316  0.90722972  0.65263551  1
