# generated using pymatgen
data_NaI
_symmetry_space_group_name_H-M   'P 1'
_cell_length_a   4.47803435
_cell_length_b   15.51281265
_cell_length_c   4.53888007
_cell_angle_alpha   90.00220060
_cell_angle_beta   90.00006508
_cell_angle_gamma   90.00130810
_symmetry_Int_Tables_number   1
_chemical_formula_structural   NaI
_chemical_formula_sum   'Na4 I4'
_cell_volume   315.30196359
_cell_formula_units_Z   4
loop_
 _symmetry_equiv_pos_site_id
 _symmetry_equiv_pos_as_xyz
  1  'x, y, z'
loop_
 _atom_site_type_symbol
 _atom_site_label
 _atom_site_symmetry_multiplicity
 _atom_site_fract_x
 _atom_site_fract_y
 _atom_site_fract_z
 _atom_site_occupancy
  Na  Na0  1  0.28166267  0.84219176  0.74853324  1
  Na  Na1  1  0.71834016  0.34219353  -0.24853076  1
  Na  Na2  1  0.21833726  0.15780584  0.24853124  1
  Na  Na3  1  0.78165962  0.65780892  0.25146629  1
  I  I4  1  0.78289102  0.86366158  0.24822817  1
  I  I5  1  0.21711841  0.36365976  0.25178274  1
  I  I6  1  0.71710918  0.13633960  0.74821584  1
  I  I7  1  0.28288168  0.63633902  0.75177324  1
