# generated using pymatgen
data_NaI
_symmetry_space_group_name_H-M   'P 1'
_cell_length_a   4.61544962
_cell_length_b   9.24466060
_cell_length_c   6.52685271
_cell_angle_alpha   89.99991958
_cell_angle_beta   90.00026921
_cell_angle_gamma   90.00000372
_symmetry_Int_Tables_number   1
_chemical_formula_structural   NaI
_chemical_formula_sum   'Na4 I4'
_cell_volume   278.48948273
_cell_formula_units_Z   4
loop_
 _symmetry_equiv_pos_site_id
 _symmetry_equiv_pos_as_xyz
  1  'x, y, z'
loop_
 _atom_site_type_symbol
 _atom_site_label
 _atom_site_symmetry_multiplicity
 _atom_site_fract_x
 _atom_site_fract_y
 _atom_site_fract_z
 _atom_site_occupancy
  Na  Na0  1  0.49835182  0.87595221  0.75120810  1
  Na  Na1  1  0.50164613  0.37595170  0.74872919  1
  Na  Na2  1  0.00164566  0.12404831  0.25127118  1
  Na  Na3  1  -0.00164895  0.62404783  0.24879192  1
  I  I4  1  0.00044671  0.12575174  0.75053826  1
  I  I5  1  -0.00044372  0.62575159  0.74948125  1
  I  I6  1  0.49955592  0.87424845  0.25051803  1
  I  I7  1  0.50044644  0.37424817  0.24946207  1
