# generated using pymatgen
data_LiBr
_symmetry_space_group_name_H-M   'P 1'
_cell_length_a   6.58801180
_cell_length_b   6.58800929
_cell_length_c   10.58719367
_cell_angle_alpha   89.99824515
_cell_angle_beta   89.99682562
_cell_angle_gamma   120.00403513
_symmetry_Int_Tables_number   1
_chemical_formula_structural   LiBr
_chemical_formula_sum   'Li9 Br9'
_cell_volume   397.92607581
_cell_formula_units_Z   9
loop_
 _symmetry_equiv_pos_site_id
 _symmetry_equiv_pos_as_xyz
  1  'x, y, z'
loop_
 _atom_site_type_symbol
 _atom_site_label
 _atom_site_symmetry_multiplicity
 _atom_site_fract_x
 _atom_site_fract_y
 _atom_site_fract_z
 _atom_site_occupancy
  Li  Li0  1  0.33403135  0.99994612  0.64414678  1
  Li  Li1  1  0.33363355  0.00089937  0.31083921  1
  Li  Li2  1  0.66728932  0.66635646  0.31083641  1
  Li  Li3  1  0.66654726  0.66706737  0.97752158  1
  Li  Li4  1  0.00053118  0.33348635  0.97750727  1
  Li  Li5  1  0.33294747  -0.00056105  0.97751684  1
  Li  Li6  1  0.00002326  0.33409220  0.64415722  1
  Li  Li7  1  -0.00090389  0.33272318  0.31084027  1
  Li  Li8  1  0.66589810  0.66598303  0.64415712  1
  Br  Br9  1  0.66661526  -0.00028488  0.81916188  1
  Br  Br10  1  0.33361486  0.33355577  0.48582630  1
  Br  Br11  1  -0.00007186  0.66638412  0.48582107  1
  Br  Br12  1  0.66692905  0.00024094  0.15249901  1
  Br  Br13  1  0.33331303  0.33307977  0.15250135  1
  Br  Br14  1  -0.00023342  0.66669558  0.15249384  1
  Br  Br15  1  0.00028072  0.66688479  0.81915854  1
  Br  Br16  1  0.66644369  0.00007010  0.48582473  1
  Br  Br17  1  0.33311107  0.33338080  0.81916413  1
