# generated using pymatgen
data_LiBr
_symmetry_space_group_name_H-M   'P 1'
_cell_length_a   7.76132870
_cell_length_b   7.76130209
_cell_length_c   13.02585154
_cell_angle_alpha   90.00010508
_cell_angle_beta   89.99970804
_cell_angle_gamma   90.00002480
_symmetry_Int_Tables_number   1
_chemical_formula_structural   LiBr
_chemical_formula_sum   'Li16 Br16'
_cell_volume   784.65146212
_cell_formula_units_Z   16
loop_
 _symmetry_equiv_pos_site_id
 _symmetry_equiv_pos_as_xyz
  1  'x, y, z'
loop_
 _atom_site_type_symbol
 _atom_site_label
 _atom_site_symmetry_multiplicity
 _atom_site_fract_x
 _atom_site_fract_y
 _atom_site_fract_z
 _atom_site_occupancy
  Li  Li0  1  0.31325570  0.31341838  0.79227834  1
  Li  Li1  1  0.81342077  0.31325634  0.04227952  1
  Li  Li2  1  0.68675314  0.31342848  0.29228117  1
  Li  Li3  1  0.68674929  0.68657661  0.79228103  1
  Li  Li4  1  0.18657497  0.68674971  0.04228191  1
  Li  Li5  1  0.68657548  0.81325450  0.04228047  1
  Li  Li6  1  0.31342192  0.18674927  0.04228063  1
  Li  Li7  1  0.18657908  0.31324902  0.54227983  1
  Li  Li8  1  0.81341887  0.68674205  0.54228037  1
  Li  Li9  1  0.18675016  0.18658205  0.29228018  1
  Li  Li10  1  0.68657374  0.18674430  0.54228211  1
  Li  Li11  1  0.81325072  0.81343072  0.29228035  1
  Li  Li12  1  0.31341905  0.81325114  0.54227863  1
  Li  Li13  1  0.18674850  0.81342059  0.79228064  1
  Li  Li14  1  0.81325662  0.18657145  0.79228039  1
  Li  Li15  1  0.31325328  0.68658056  0.29227961  1
  Br  Br16  1  0.43833540  0.75071378  0.91716037  1
  Br  Br17  1  0.25071596  0.43833731  0.16716004  1
  Br  Br18  1  0.56166412  0.75071766  0.41716013  1
  Br  Br19  1  0.56166691  0.24928221  0.91715938  1
  Br  Br20  1  0.74928552  0.56167039  0.16715970  1
  Br  Br21  1  0.24928382  0.93833786  0.16715994  1
  Br  Br22  1  0.75071543  0.06167095  0.16715889  1
  Br  Br23  1  0.74928377  0.43833014  0.66716111  1
  Br  Br24  1  0.25071550  0.56166072  0.66715933  1
  Br  Br25  1  0.06166133  0.74928079  0.41715914  1
  Br  Br26  1  0.24928417  0.06166213  0.66715887  1
  Br  Br27  1  0.93833393  0.25071260  0.41716092  1
  Br  Br28  1  0.75071684  0.93833042  0.66715983  1
  Br  Br29  1  0.06166611  0.25071668  0.91715956  1
  Br  Br30  1  0.93833279  0.74928549  0.91715970  1
  Br  Br31  1  0.43833713  0.24928568  0.41715888  1
