# generated using pymatgen
data_LiI
_symmetry_space_group_name_H-M   'P 1'
_cell_length_a   8.58272846
_cell_length_b   8.58281715
_cell_length_c   11.67766376
_cell_angle_alpha   89.99998313
_cell_angle_beta   89.99999993
_cell_angle_gamma   90.00032844
_symmetry_Int_Tables_number   1
_chemical_formula_structural   LiI
_chemical_formula_sum   'Li16 I16'
_cell_volume   860.22329471
_cell_formula_units_Z   16
loop_
 _symmetry_equiv_pos_site_id
 _symmetry_equiv_pos_as_xyz
  1  'x, y, z'
loop_
 _atom_site_type_symbol
 _atom_site_label
 _atom_site_symmetry_multiplicity
 _atom_site_fract_x
 _atom_site_fract_y
 _atom_site_fract_z
 _atom_site_occupancy
  Li  Li0  1  0.24934619  0.50025210  0.71250003  1
  Li  Li1  1  0.00024657  0.24933904  0.96249321  1
  Li  Li2  1  0.75066915  0.50024586  0.21249135  1
  Li  Li3  1  0.75067206  0.49975299  0.71249875  1
  Li  Li4  1  -0.00024495  0.75066662  0.96249216  1
  Li  Li5  1  0.49975677  0.74934209  0.96249184  1
  Li  Li6  1  0.50024080  0.25066217  0.96249043  1
  Li  Li7  1  -0.00024307  0.24933053  0.46249566  1
  Li  Li8  1  0.00024315  0.75067083  0.46249698  1
  Li  Li9  1  0.25065999  -0.00024480  0.21249223  1
  Li  Li10  1  0.49975398  0.25067332  0.46249598  1
  Li  Li11  1  0.74933465  0.00024723  0.21249072  1
  Li  Li12  1  0.50024467  0.74933510  0.46249653  1
  Li  Li13  1  0.25065204  0.00024116  0.71249904  1
  Li  Li14  1  0.74933465  -0.00024062  0.71249887  1
  Li  Li15  1  0.24934067  0.49975505  0.21249077  1
  I  I16  1  0.75064780  0.50021010  0.46239021  1
  I  I17  1  0.00021054  0.75064466  0.71239059  1
  I  I18  1  0.24935579  0.50019834  0.96239854  1
  I  I19  1  0.24935162  0.49978945  0.46239700  1
  I  I20  1  -0.00019929  0.24934336  0.71239425  1
  I  I21  1  0.49978649  0.25064731  0.71239701  1
  I  I22  1  0.50020162  0.74935785  0.71239302  1
  I  I23  1  -0.00021361  0.75064941  0.21241401  1
  I  I24  1  0.00020500  0.24935447  0.21241237  1
  I  I25  1  0.74934723  -0.00020840  0.96240285  1
  I  I26  1  0.49979736  0.74934464  0.21241278  1
  I  I27  1  0.25064566  0.00020899  0.96239495  1
  I  I28  1  0.50020918  0.25064511  0.21241053  1
  I  I29  1  0.74935164  0.00020236  0.46239408  1
  I  I30  1  0.25064544  -0.00021077  0.46240147  1
  I  I31  1  0.75065020  0.49979445  0.96240596  1
