# generated using pymatgen
data_LiI
_symmetry_space_group_name_H-M   'P 1'
_cell_length_a   6.02764649
_cell_length_b   6.01669701
_cell_length_c   6.00714324
_cell_angle_alpha   90.00000076
_cell_angle_beta   89.97480635
_cell_angle_gamma   89.99999893
_symmetry_Int_Tables_number   1
_chemical_formula_structural   LiI
_chemical_formula_sum   'Li4 I4'
_cell_volume   217.85817497
_cell_formula_units_Z   4
loop_
 _symmetry_equiv_pos_site_id
 _symmetry_equiv_pos_as_xyz
  1  'x, y, z'
loop_
 _atom_site_type_symbol
 _atom_site_label
 _atom_site_symmetry_multiplicity
 _atom_site_fract_x
 _atom_site_fract_y
 _atom_site_fract_z
 _atom_site_occupancy
  Li  Li0  1  0.46447855  0.74564309  0.03066351  1
  Li  Li1  1  0.96447992  0.24564465  0.03066335  1
  Li  Li2  1  0.46447804  0.25435671  0.53066466  1
  Li  Li3  1  0.96448081  0.75435428  0.53065991  1
  I  I4  1  0.46482058  0.75125078  0.53129002  1
  I  I5  1  0.96482006  0.25125019  0.53128991  1
  I  I6  1  0.46482011  0.24874994  0.03128982  1
  I  I7  1  0.96482005  0.74875036  0.03128930  1
