# generated using pymatgen
data_LiBr
_symmetry_space_group_name_H-M   'P 1'
_cell_length_a   3.89203247
_cell_length_b   3.89204232
_cell_length_c   9.52469877
_cell_angle_alpha   89.99858821
_cell_angle_beta   90.00122377
_cell_angle_gamma   120.00079976
_symmetry_Int_Tables_number   1
_chemical_formula_structural   LiBr
_chemical_formula_sum   'Li3 Br3'
_cell_volume   124.94888645
_cell_formula_units_Z   3
loop_
 _symmetry_equiv_pos_site_id
 _symmetry_equiv_pos_as_xyz
  1  'x, y, z'
loop_
 _atom_site_type_symbol
 _atom_site_label
 _atom_site_symmetry_multiplicity
 _atom_site_fract_x
 _atom_site_fract_y
 _atom_site_fract_z
 _atom_site_occupancy
  Li  Li0  1  0.00155095  0.33439585  0.14254874  1
  Li  Li1  1  0.66559999  0.66712635  0.47587643  1
  Li  Li2  1  0.33284576  -0.00153830  0.80921352  1
  Br  Br3  1  -0.00089977  0.33232071  0.64206463  1
  Br  Br4  1  0.66768680  0.66679484  -0.02459880  1
  Br  Br5  1  0.33321627  0.00090054  0.30873187  1
