# generated using pymatgen
data_NaBr
_symmetry_space_group_name_H-M   'P 1'
_cell_length_a   4.27140107
_cell_length_b   4.27140879
_cell_length_c   10.40557425
_cell_angle_alpha   90.00095584
_cell_angle_beta   89.99886652
_cell_angle_gamma   120.00163326
_symmetry_Int_Tables_number   1
_chemical_formula_structural   NaBr
_chemical_formula_sum   'Na3 Br3'
_cell_volume   164.41105855
_cell_formula_units_Z   3
loop_
 _symmetry_equiv_pos_site_id
 _symmetry_equiv_pos_as_xyz
  1  'x, y, z'
loop_
 _atom_site_type_symbol
 _atom_site_label
 _atom_site_symmetry_multiplicity
 _atom_site_fract_x
 _atom_site_fract_y
 _atom_site_fract_z
 _atom_site_occupancy
  Na  Na0  1  0.33371915  0.33311366  0.40411210  1
  Na  Na1  1  0.66686367  0.00061108  0.07078226  1
  Na  Na2  1  -0.00058780  0.66628058  0.73744395  1
  Br  Br3  1  0.00151036  0.66655204  0.23824826  1
  Br  Br4  1  0.33343450  0.33494983  0.90491656  1
  Br  Br5  1  0.66506012  -0.00150718  0.57157970  1
