# generated using pymatgen
data_KI
_symmetry_space_group_name_H-M   'P 1'
_cell_length_a   16.69208134
_cell_length_b   5.22034335
_cell_length_c   9.31501716
_cell_angle_alpha   89.99999975
_cell_angle_beta   89.99974926
_cell_angle_gamma   89.99999831
_symmetry_Int_Tables_number   1
_chemical_formula_structural   KI
_chemical_formula_sum   'K8 I8'
_cell_volume   811.69565327
_cell_formula_units_Z   8
loop_
 _symmetry_equiv_pos_site_id
 _symmetry_equiv_pos_as_xyz
  1  'x, y, z'
loop_
 _atom_site_type_symbol
 _atom_site_label
 _atom_site_symmetry_multiplicity
 _atom_site_fract_x
 _atom_site_fract_y
 _atom_site_fract_z
 _atom_site_occupancy
  K  K0  1  0.15120835  0.49944922  0.37072407  1
  K  K1  1  0.15120839  0.50055082  0.87072407  1
  K  K2  1  0.65120847  0.00055072  0.62927544  1
  K  K3  1  0.34879152  0.00055071  0.87072456  1
  K  K4  1  0.84879166  0.49944920  0.12927593  1
  K  K5  1  0.34879149  -0.00055073  0.37072456  1
  K  K6  1  0.65120853  -0.00055073  0.12927544  1
  K  K7  1  0.84879159  0.50055080  0.62927592  1
  I  I8  1  0.14121060  0.00080019  0.12098125  1
  I  I9  1  0.14121062  -0.00080015  0.62098126  1
  I  I10  1  0.64121071  0.49919981  0.87901817  1
  I  I11  1  0.35878929  0.49919980  0.62098184  1
  I  I12  1  0.85878939  0.00080017  0.37901873  1
  I  I13  1  0.35878926  0.50080017  0.12098183  1
  I  I14  1  0.64121074  0.50080018  0.37901817  1
  I  I15  1  0.85878938  -0.00080017  0.87901875  1
