# generated using pymatgen
data_LiBr
_symmetry_space_group_name_H-M   'P 1'
_cell_length_a   15.81527149
_cell_length_b   15.81524213
_cell_length_c   15.81513985
_cell_angle_alpha   90.00014538
_cell_angle_beta   89.99999810
_cell_angle_gamma   89.99993475
_symmetry_Int_Tables_number   1
_chemical_formula_structural   LiBr
_chemical_formula_sum   'Li48 Br48'
_cell_volume   3955.71991128
_cell_formula_units_Z   48
loop_
 _symmetry_equiv_pos_site_id
 _symmetry_equiv_pos_as_xyz
  1  'x, y, z'
loop_
 _atom_site_type_symbol
 _atom_site_label
 _atom_site_symmetry_multiplicity
 _atom_site_fract_x
 _atom_site_fract_y
 _atom_site_fract_z
 _atom_site_occupancy
  Li  Li0  1  0.62384131  0.45632126  0.44226597  1
  Li  Li1  1  0.70538576  0.87373237  0.69342272  1
  Li  Li2  1  0.12383581  0.04367674  0.55773644  1
  Li  Li3  1  0.29461266  0.62626517  0.69342080  1
  Li  Li4  1  0.87616012  0.45632181  0.55773215  1
  Li  Li5  1  0.80657996  0.70538501  0.12626744  1
  Li  Li6  1  0.80657751  0.29461402  0.37373479  1
  Li  Li7  1  0.79461481  0.87373381  0.30658216  1
  Li  Li8  1  0.12383541  0.95632287  0.94226553  1
  Li  Li9  1  0.20538566  0.37372963  0.19342113  1
  Li  Li10  1  0.44226280  0.37616465  0.04368175  1
  Li  Li11  1  0.62626822  0.69341814  0.29461678  1
  Li  Li12  1  0.55773793  0.12383527  0.04367877  1
  Li  Li13  1  0.37373404  0.19342002  0.20538329  1
  Li  Li14  1  0.62626733  0.30657749  0.20538438  1
  Li  Li15  1  0.94226313  0.12383605  0.95631670  1
  Li  Li16  1  0.37373519  0.80657837  0.29461417  1
  Li  Li17  1  0.87373415  0.30658167  0.79461404  1
  Li  Li18  1  0.55773733  0.87616659  0.45632177  1
  Li  Li19  1  0.70538828  0.12626788  0.80657717  1
  Li  Li20  1  0.45631598  0.44226218  0.62383722  1
  Li  Li21  1  0.54368354  0.94226200  0.87616717  1
  Li  Li22  1  0.19341974  0.20538109  0.37373128  1
  Li  Li23  1  0.95631742  0.05773729  0.37615977  1
  Li  Li24  1  0.69342053  0.29461733  0.62626566  1
  Li  Li25  1  0.54368206  0.05773878  0.62383816  1
  Li  Li26  1  0.05773667  0.37616391  0.95632155  1
  Li  Li27  1  0.20538575  0.62626751  0.30657540  1
  Li  Li28  1  0.87616020  0.54368041  0.94226356  1
  Li  Li29  1  0.62383560  0.54367900  0.05773628  1
  Li  Li30  1  0.79461277  0.12626551  0.19342039  1
  Li  Li31  1  0.37616025  0.95632155  0.05773354  1
  Li  Li32  1  0.30657895  0.20538341  0.62626715  1
  Li  Li33  1  0.30658086  0.79461561  0.87373597  1
  Li  Li34  1  0.04368282  0.44225921  0.37616806  1
  Li  Li35  1  0.69341943  0.70538117  0.87373360  1
  Li  Li36  1  0.37615963  0.04367827  0.44226379  1
  Li  Li37  1  0.29461339  0.37373303  0.80658128  1
  Li  Li38  1  0.45631794  0.55773735  0.87616302  1
  Li  Li39  1  0.19342145  0.79462043  0.12626425  1
  Li  Li40  1  0.04368186  0.55774105  0.12383543  1
  Li  Li41  1  0.95631815  0.94226578  0.12383712  1
  Li  Li42  1  0.12626709  0.80657640  0.70538657  1
  Li  Li43  1  0.05773695  0.62383656  0.54367651  1
  Li  Li44  1  0.87373554  0.69341956  0.70538421  1
  Li  Li45  1  0.94226433  0.87616538  0.54368251  1
  Li  Li46  1  0.12626678  0.19342241  0.79461690  1
  Li  Li47  1  0.44226190  0.62384044  0.45631904  1
  Br  Br48  1  0.91584450  0.09155259  0.10477526  1
  Br  Br49  1  0.34262647  0.16537744  0.35372050  1
  Br  Br50  1  0.41584552  0.40844848  0.89522607  1
  Br  Br51  1  0.65737187  0.33462036  0.35372374  1
  Br  Br52  1  0.58415649  0.09155177  0.89522045  1
  Br  Br53  1  0.14627496  0.34263053  0.83461965  1
  Br  Br54  1  0.14627559  0.65737017  0.66538010  1
  Br  Br55  1  0.15737295  0.16537740  0.64627814  1
  Br  Br56  1  0.41584183  0.59155147  0.60477411  1
  Br  Br57  1  0.84262688  0.66537677  0.85372127  1
  Br  Br58  1  0.10477422  0.08414979  0.40844734  1
  Br  Br59  1  0.33461807  0.35372174  0.65737194  1
  Br  Br60  1  0.89522430  0.41584866  0.40844447  1
  Br  Br61  1  0.66538060  0.85371878  0.84263039  1
  Br  Br62  1  0.33461962  0.64627969  0.84262749  1
  Br  Br63  1  0.60477263  0.41584796  0.59155432  1
  Br  Br64  1  0.66538196  0.14627918  0.65736805  1
  Br  Br65  1  0.16538131  0.64628242  0.15736715  1
  Br  Br66  1  0.89522542  0.58415518  0.09155252  1
  Br  Br67  1  0.34262810  0.83462336  0.14627598  1
  Br  Br68  1  0.09155493  0.10477878  0.91585228  1
  Br  Br69  1  0.90844801  0.60477704  0.58414816  1
  Br  Br70  1  0.85372563  0.84262857  0.66538493  1
  Br  Br71  1  0.59155370  0.39522161  0.08415106  1
  Br  Br72  1  0.35372474  0.65736982  0.33461527  1
  Br  Br73  1  0.90844692  0.39522364  0.91584876  1
  Br  Br74  1  0.39522637  0.08415220  0.59155253  1
  Br  Br75  1  0.84262562  0.33462406  0.64627681  1
  Br  Br76  1  0.58415299  0.90844752  0.60477873  1
  Br  Br77  1  0.91584490  0.90844761  0.39522706  1
  Br  Br78  1  0.15737400  0.83462341  0.85372556  1
  Br  Br79  1  0.08415478  0.59155161  0.39522086  1
  Br  Br80  1  0.64627793  0.84262450  0.33462231  1
  Br  Br81  1  0.64627696  0.15736992  0.16537941  1
  Br  Br82  1  0.40844839  0.10477853  0.08414814  1
  Br  Br83  1  0.35372509  0.34263008  0.16538399  1
  Br  Br84  1  0.08415342  0.40845188  0.10477676  1
  Br  Br85  1  0.65737365  0.66537647  0.14627708  1
  Br  Br86  1  0.09155562  0.89522103  0.58415233  1
  Br  Br87  1  0.85372471  0.15737224  0.83461647  1
  Br  Br88  1  0.40844735  0.89522188  0.41584918  1
  Br  Br89  1  0.59155067  0.60477327  0.41584921  1
  Br  Br90  1  0.83462011  0.14627754  0.34262892  1
  Br  Br91  1  0.39522682  0.91584908  0.90844499  1
  Br  Br92  1  0.16537848  0.35371749  0.34262944  1
  Br  Br93  1  0.60477490  0.58414938  0.90844615  1
  Br  Br94  1  0.83462013  0.85372284  0.15737389  1
  Br  Br95  1  0.10477490  0.91585280  0.09155741  1
