# generated using pymatgen
data_LiBr
_symmetry_space_group_name_H-M   'P 1'
_cell_length_a   15.52727898
_cell_length_b   13.38591506
_cell_length_c   4.01386861
_cell_angle_alpha   89.98905483
_cell_angle_beta   89.99989297
_cell_angle_gamma   89.83489773
_symmetry_Int_Tables_number   1
_chemical_formula_structural   LiBr
_chemical_formula_sum   'Li16 Br16'
_cell_volume   834.26641685
_cell_formula_units_Z   16
loop_
 _symmetry_equiv_pos_site_id
 _symmetry_equiv_pos_as_xyz
  1  'x, y, z'
loop_
 _atom_site_type_symbol
 _atom_site_label
 _atom_site_symmetry_multiplicity
 _atom_site_fract_x
 _atom_site_fract_y
 _atom_site_fract_z
 _atom_site_occupancy
  Li  Li0  1  0.66537941  -0.02064150  0.52052240  1
  Li  Li1  1  0.33464021  0.02064432  0.52054314  1
  Li  Li2  1  0.58478856  0.22949249  0.76161141  1
  Li  Li3  1  0.83464025  0.02064806  0.02051064  1
  Li  Li4  1  0.08478643  0.22948878  0.26161311  1
  Li  Li5  1  0.91518545  0.27051591  0.76161076  1
  Li  Li6  1  0.16538110  -0.02063977  0.02055378  1
  Li  Li7  1  0.08479356  0.72949205  0.76161596  1
  Li  Li8  1  0.91518762  0.77051334  0.26160996  1
  Li  Li9  1  0.16538092  0.47935618  0.52057094  1
  Li  Li10  1  0.83463970  0.52064568  0.52056975  1
  Li  Li11  1  0.58479292  0.72948994  0.26160831  1
  Li  Li12  1  0.41518655  0.27051493  0.26160800  1
  Li  Li13  1  0.41519148  0.77051632  0.76159819  1
  Li  Li14  1  0.66538023  0.47936100  0.02057894  1
  Li  Li15  1  0.33463964  0.52064814  0.02056329  1
  Br  Br16  1  0.68211071  0.09588928  0.01280805  1
  Br  Br17  1  0.31790428  0.90410309  0.01296585  1
  Br  Br18  1  0.56698918  0.34621079  0.25360684  1
  Br  Br19  1  0.81790359  0.90410509  0.51294000  1
  Br  Br20  1  0.06698803  0.34620795  0.75360408  1
  Br  Br21  1  0.93299326  0.15378387  0.25375057  1
  Br  Br22  1  0.18211204  0.09589050  0.51283182  1
  Br  Br23  1  0.06699058  0.84621143  0.25361046  1
  Br  Br24  1  0.93299726  0.65378386  0.75375329  1
  Br  Br25  1  0.18210926  0.59588815  0.01285881  1
  Br  Br26  1  0.81790451  0.40410574  0.01298797  1
  Br  Br27  1  0.56699249  0.84621050  0.75360526  1
  Br  Br28  1  0.43299518  0.15378292  0.75374856  1
  Br  Br29  1  0.43299867  0.65378538  0.25373868  1
  Br  Br30  1  0.68211039  0.59588908  0.51285493  1
  Br  Br31  1  0.31790653  0.40410649  0.51299215  1
