# generated using pymatgen
data_LiBr
_symmetry_space_group_name_H-M   'P 1'
_cell_length_a   7.79439191
_cell_length_b   7.79438920
_cell_length_c   10.98594431
_cell_angle_alpha   90.00000487
_cell_angle_beta   90.00000416
_cell_angle_gamma   89.99998297
_symmetry_Int_Tables_number   1
_chemical_formula_structural   LiBr
_chemical_formula_sum   'Li16 Br16'
_cell_volume   667.42384671
_cell_formula_units_Z   16
loop_
 _symmetry_equiv_pos_site_id
 _symmetry_equiv_pos_as_xyz
  1  'x, y, z'
loop_
 _atom_site_type_symbol
 _atom_site_label
 _atom_site_symmetry_multiplicity
 _atom_site_fract_x
 _atom_site_fract_y
 _atom_site_fract_z
 _atom_site_occupancy
  Li  Li0  1  0.00022415  0.25200957  0.34120215  1
  Li  Li1  1  0.75201041  0.00022459  0.59120221  1
  Li  Li2  1  0.99977584  0.25201109  0.84120217  1
  Li  Li3  1  0.99977607  0.74798820  0.34120289  1
  Li  Li4  1  0.24798893  0.99977682  0.59120268  1
  Li  Li5  1  0.74798890  0.50022466  0.59120269  1
  Li  Li6  1  0.25201073  0.49977654  0.59120224  1
  Li  Li7  1  0.24798890  0.00022449  0.09120261  1
  Li  Li8  1  0.75201001  0.99977626  0.09120219  1
  Li  Li9  1  0.49977651  0.24798830  0.84120287  1
  Li  Li10  1  0.74798964  0.49977672  0.09120248  1
  Li  Li11  1  0.50022542  0.75201160  0.84120218  1
  Li  Li12  1  0.25201083  0.50022399  0.09120205  1
  Li  Li13  1  0.49977535  0.75200990  0.34120232  1
  Li  Li14  1  0.50022385  0.24798827  0.34120274  1
  Li  Li15  1  0.00022460  0.74798845  0.84120276  1
  Br  Br16  1  0.49977915  0.75080775  0.59165220  1
  Br  Br17  1  0.25080729  0.49977896  0.84165198  1
  Br  Br18  1  0.50022092  0.75080721  0.09165189  1
  Br  Br19  1  0.50022090  0.24919305  0.59165213  1
  Br  Br20  1  0.74919316  0.50022084  0.84165194  1
  Br  Br21  1  0.24919289  -0.00022084  0.84165198  1
  Br  Br22  1  0.75080728  0.00022090  0.84165186  1
  Br  Br23  1  0.74919287  0.49977902  0.34165203  1
  Br  Br24  1  0.25080685  0.50022074  0.34165215  1
  Br  Br25  1  0.00022045  0.74919302  0.09165209  1
  Br  Br26  1  0.24919297  0.00022076  0.34165224  1
  Br  Br27  1  -0.00022114  0.25080699  0.09165201  1
  Br  Br28  1  0.75080708  -0.00022118  0.34165204  1
  Br  Br29  1  0.00022064  0.25080712  0.59165209  1
  Br  Br30  1  -0.00022098  0.74919334  0.59165228  1
  Br  Br31  1  0.49977954  0.24919291  0.09165200  1
