# generated using pymatgen
data_LiI
_symmetry_space_group_name_H-M   'P 1'
_cell_length_a   11.96038998
_cell_length_b   11.96002718
_cell_length_c   11.21323795
_cell_angle_alpha   90.00129532
_cell_angle_beta   89.98739667
_cell_angle_gamma   120.00370092
_symmetry_Int_Tables_number   1
_chemical_formula_structural   LiI
_chemical_formula_sum   'Li18 I18'
_cell_volume   1389.06627469
_cell_formula_units_Z   18
loop_
 _symmetry_equiv_pos_site_id
 _symmetry_equiv_pos_as_xyz
  1  'x, y, z'
loop_
 _atom_site_type_symbol
 _atom_site_label
 _atom_site_symmetry_multiplicity
 _atom_site_fract_x
 _atom_site_fract_y
 _atom_site_fract_z
 _atom_site_occupancy
  Li  Li0  1  0.24937065  0.24829574  0.25136130  1
  Li  Li1  1  0.66788981  0.58289381  0.08140840  1
  Li  Li2  1  0.75062955  0.75170522  0.74863966  1
  Li  Li3  1  -0.00105701  0.75063168  0.25136993  1
  Li  Li4  1  0.91501145  0.33210829  0.08140054  1
  Li  Li5  1  0.24831347  -0.00104886  0.74862400  1
  Li  Li6  1  0.41849836  0.33464824  0.58513921  1
  Li  Li7  1  0.75168741  0.00104713  0.25137464  1
  Li  Li8  1  0.00105808  0.24936807  0.74863048  1
  Li  Li9  1  0.58150031  0.66535161  0.41486139  1
  Li  Li10  1  0.08498898  0.66789106  0.91859904  1
  Li  Li11  1  0.66534696  0.08384980  0.58512160  1
  Li  Li12  1  0.33465407  0.91615099  0.41487678  1
  Li  Li13  1  0.33211014  0.41710542  0.91859150  1
  Li  Li14  1  0.91615638  0.58149404  0.58511966  1
  Li  Li15  1  0.08384245  0.41850679  0.41488003  1
  Li  Li16  1  0.41708934  0.08499410  0.08142793  1
  Li  Li17  1  0.58290942  0.91500564  0.91857249  1
  I  I18  1  0.21878984  0.21769309  0.75200401  1
  I  I19  1  0.66776063  0.55260956  0.58156019  1
  I  I20  1  0.78120996  0.78230581  0.24799554  1
  I  I21  1  0.99892641  0.78120946  0.75204674  1
  I  I22  1  0.88486847  0.33225644  0.58157927  1
  I  I23  1  0.21773207  0.99893411  0.24797938  1
  I  I24  1  0.44886143  0.33440127  0.08503507  1
  I  I25  1  0.78226760  0.00106631  0.75202145  1
  I  I26  1  0.00107325  0.21879043  0.24795267  1
  I  I27  1  0.55113879  0.66559817  0.91496536  1
  I  I28  1  0.11513175  0.66774444  0.41842198  1
  I  I29  1  0.66558045  0.11446435  0.08505245  1
  I  I30  1  0.33441927  0.88553608  0.91494647  1
  I  I31  1  0.33223750  0.44739021  0.41844128  1
  I  I32  1  0.88553593  0.55108678  0.08501236  1
  I  I33  1  0.11446477  0.44891298  0.91498798  1
  I  I34  1  0.44739114  0.11517338  0.58160521  1
  I  I35  1  0.55261096  0.88482837  0.41839399  1
