# generated using pymatgen
data_LiBr
_symmetry_space_group_name_H-M   'P 1'
_cell_length_a   6.86482476
_cell_length_b   7.30539773
_cell_length_c   4.31388351
_cell_angle_alpha   89.99994876
_cell_angle_beta   89.99988397
_cell_angle_gamma   90.00031807
_symmetry_Int_Tables_number   1
_chemical_formula_structural   LiBr
_chemical_formula_sum   'Li4 Br4'
_cell_volume   216.34244538
_cell_formula_units_Z   4
loop_
 _symmetry_equiv_pos_site_id
 _symmetry_equiv_pos_as_xyz
  1  'x, y, z'
loop_
 _atom_site_type_symbol
 _atom_site_label
 _atom_site_symmetry_multiplicity
 _atom_site_fract_x
 _atom_site_fract_y
 _atom_site_fract_z
 _atom_site_occupancy
  Li  Li0  1  0.65530962  0.59633786  0.09952892  1
  Li  Li1  1  0.15531840  0.90365961  0.09953368  1
  Li  Li2  1  0.34469032  0.40366172  0.59952582  1
  Li  Li3  1  0.84468162  0.09634069  0.59952929  1
  Br  Br4  1  0.72196147  0.42197679  0.59964965  1
  Br  Br5  1  0.22196147  0.07802422  0.59965260  1
  Br  Br6  1  0.27803857  0.57802340  0.09964774  1
  Br  Br7  1  0.77803854  0.92197572  0.09965098  1
