# generated using pymatgen
data_LiBr
_symmetry_space_group_name_H-M   'P 1'
_cell_length_a   7.84915664
_cell_length_b   7.84914849
_cell_length_c   10.77020485
_cell_angle_alpha   90.00001590
_cell_angle_beta   90.00011766
_cell_angle_gamma   90.00016156
_symmetry_Int_Tables_number   1
_chemical_formula_structural   LiBr
_chemical_formula_sum   'Li16 Br16'
_cell_volume   663.54366112
_cell_formula_units_Z   16
loop_
 _symmetry_equiv_pos_site_id
 _symmetry_equiv_pos_as_xyz
  1  'x, y, z'
loop_
 _atom_site_type_symbol
 _atom_site_label
 _atom_site_symmetry_multiplicity
 _atom_site_fract_x
 _atom_site_fract_y
 _atom_site_fract_z
 _atom_site_occupancy
  Li  Li0  1  0.50028949  0.74910033  0.65231952  1
  Li  Li1  1  0.24910116  0.50029027  0.90231988  1
  Li  Li2  1  0.49971196  0.74910197  0.15232149  1
  Li  Li3  1  0.49971006  0.25089989  0.65232082  1
  Li  Li4  1  0.75089925  0.49970867  0.90231958  1
  Li  Li5  1  0.25089901  0.00029011  0.90232131  1
  Li  Li6  1  0.74910066  -0.00028869  0.90232084  1
  Li  Li7  1  0.75089940  0.50028934  0.40232092  1
  Li  Li8  1  0.24909949  0.49971261  0.40232128  1
  Li  Li9  1  -0.00029141  0.75089855  0.15232030  1
  Li  Li10  1  0.25090240  -0.00029033  0.40231959  1
  Li  Li11  1  0.00028881  0.24909911  0.15232001  1
  Li  Li12  1  0.74909851  0.00028896  0.40231996  1
  Li  Li13  1  -0.00029036  0.24910187  0.65232158  1
  Li  Li14  1  0.00028872  0.75089913  0.65232094  1
  Li  Li15  1  0.50028750  0.25089795  0.15232080  1
  Br  Br16  1  0.75007656  0.50076018  0.15228949  1
  Br  Br17  1  0.00076227  0.75007583  0.40228868  1
  Br  Br18  1  0.24992435  0.50076036  0.65228946  1
  Br  Br19  1  0.24992453  0.49923978  0.15228932  1
  Br  Br20  1  -0.00076171  0.24992500  0.40228968  1
  Br  Br21  1  0.49923822  0.25007514  0.40228944  1
  Br  Br22  1  0.50076283  0.74992481  0.40228918  1
  Br  Br23  1  -0.00076222  0.75007560  0.90228936  1
  Br  Br24  1  0.00076235  0.24992486  0.90228911  1
  Br  Br25  1  0.74992426  -0.00076128  0.65228938  1
  Br  Br26  1  0.49923944  0.74992416  0.90228929  1
  Br  Br27  1  0.25007578  0.00076060  0.65228930  1
  Br  Br28  1  0.50076177  0.25007596  0.90228941  1
  Br  Br29  1  0.74992481  0.00075988  0.15228898  1
  Br  Br30  1  0.25007523  -0.00076053  0.15228934  1
  Br  Br31  1  0.75007688  0.49923992  0.65228869  1
