# generated using pymatgen
data_LiI
_symmetry_space_group_name_H-M   'P 1'
_cell_length_a   11.03322861
_cell_length_b   11.03637049
_cell_length_c   9.11819858
_cell_angle_alpha   89.99998146
_cell_angle_beta   89.99997195
_cell_angle_gamma   90.00057618
_symmetry_Int_Tables_number   1
_chemical_formula_structural   LiI
_chemical_formula_sum   'Li16 I16'
_cell_volume   1110.29385006
_cell_formula_units_Z   16
loop_
 _symmetry_equiv_pos_site_id
 _symmetry_equiv_pos_as_xyz
  1  'x, y, z'
loop_
 _atom_site_type_symbol
 _atom_site_label
 _atom_site_symmetry_multiplicity
 _atom_site_fract_x
 _atom_site_fract_y
 _atom_site_fract_z
 _atom_site_occupancy
  Li  Li0  1  0.16648480  0.50034221  0.60059402  1
  Li  Li1  1  0.00029143  0.16653990  0.85075563  1
  Li  Li2  1  0.83351546  0.50034158  0.10059384  1
  Li  Li3  1  0.83351421  0.49965748  0.60059468  1
  Li  Li4  1  -0.00029167  0.83345959  0.85075516  1
  Li  Li5  1  0.49970875  0.66654157  0.85075882  1
  Li  Li6  1  0.50029059  0.33345995  0.85075825  1
  Li  Li7  1  -0.00029049  0.16654146  0.35075824  1
  Li  Li8  1  0.00028989  0.83345897  0.35075708  1
  Li  Li9  1  0.33351789  -0.00034258  0.10059315  1
  Li  Li10  1  0.49970894  0.33345853  0.35075442  1
  Li  Li11  1  0.66648513  0.00034304  0.10059363  1
  Li  Li12  1  0.50029177  0.66654137  0.35075490  1
  Li  Li13  1  0.33351661  0.00034165  0.60059430  1
  Li  Li14  1  0.66648112  -0.00034134  0.60059348  1
  Li  Li15  1  0.16648469  0.49965816  0.10059440  1
  I  I16  1  0.49999966  0.80810497  0.60070578  1
  I  I17  1  0.30811487  0.50002369  0.85056117  1
  I  I18  1  0.49999693  0.80810615  0.10070533  1
  I  I19  1  0.49999771  0.19189592  0.60070642  1
  I  I20  1  0.69188420  0.49997713  0.85056105  1
  I  I21  1  0.19188657  0.00002775  0.85056112  1
  I  I22  1  0.80811314  -0.00002977  0.85055854  1
  I  I23  1  0.69188489  0.50002837  0.35056048  1
  I  I24  1  0.30811574  0.49997011  0.35055979  1
  I  I25  1  -0.00000175  0.69189314  0.10070513  1
  I  I26  1  0.19188645  -0.00002431  0.35055903  1
  I  I27  1  0.00000078  0.30810670  0.10070474  1
  I  I28  1  0.80811353  0.00002426  0.35056107  1
  I  I29  1  -0.00000600  0.30810754  0.60070703  1
  I  I30  1  0.00000691  0.69189221  0.60070576  1
  I  I31  1  0.50000727  0.19189461  0.10070459  1
