# generated using pymatgen
data_LiI
_symmetry_space_group_name_H-M   'P 1'
_cell_length_a   9.92829924
_cell_length_b   4.82413461
_cell_length_c   5.24957941
_cell_angle_alpha   89.99999256
_cell_angle_beta   89.99999457
_cell_angle_gamma   90.00002791
_symmetry_Int_Tables_number   1
_chemical_formula_structural   LiI
_chemical_formula_sum   'Li4 I4'
_cell_volume   251.43097824
_cell_formula_units_Z   4
loop_
 _symmetry_equiv_pos_site_id
 _symmetry_equiv_pos_as_xyz
  1  'x, y, z'
loop_
 _atom_site_type_symbol
 _atom_site_label
 _atom_site_symmetry_multiplicity
 _atom_site_fract_x
 _atom_site_fract_y
 _atom_site_fract_z
 _atom_site_occupancy
  Li  Li0  1  0.02007831  0.75656908  0.50042532  1
  Li  Li1  1  -0.02008236  0.25657237  -0.00042428  1
  Li  Li2  1  0.47992620  0.24343232  0.00042023  1
  Li  Li3  1  0.52007778  0.74342948  0.49957674  1
  I  I4  1  0.12481933  0.75508428  0.00018042  1
  I  I5  1  0.87517944  0.25508419  0.49982264  1
  I  I6  1  0.37518057  0.24491420  0.50017808  1
  I  I7  1  0.62482072  0.74491406  -0.00017915  1
