# generated using pymatgen
data_LiI
_symmetry_space_group_name_H-M   'P 1'
_cell_length_a   4.28712310
_cell_length_b   4.28715852
_cell_length_c   10.15077939
_cell_angle_alpha   89.99996943
_cell_angle_beta   90.00053477
_cell_angle_gamma   119.99920190
_symmetry_Int_Tables_number   1
_chemical_formula_structural   LiI
_chemical_formula_sum   'Li3 I3'
_cell_volume   161.57308210
_cell_formula_units_Z   3
loop_
 _symmetry_equiv_pos_site_id
 _symmetry_equiv_pos_as_xyz
  1  'x, y, z'
loop_
 _atom_site_type_symbol
 _atom_site_label
 _atom_site_symmetry_multiplicity
 _atom_site_fract_x
 _atom_site_fract_y
 _atom_site_fract_z
 _atom_site_occupancy
  Li  Li0  1  0.00036216  0.66823867  0.03385620  1
  Li  Li1  1  0.33175874  0.33213042  0.70052294  1
  Li  Li2  1  0.66787413  -0.00035870  0.36719252  1
  I  I3  1  0.66583650  -0.00082440  0.86956350  1
  I  I4  1  0.00082475  0.66665172  0.53622601  1
  I  I5  1  0.33334371  0.33416228  0.20289290  1
