# generated using pymatgen
data_LiI
_symmetry_space_group_name_H-M   'P 1'
_cell_length_a   4.12209893
_cell_length_b   15.52408840
_cell_length_c   4.11348673
_cell_angle_alpha   90.00020462
_cell_angle_beta   90.00001827
_cell_angle_gamma   89.99999120
_symmetry_Int_Tables_number   1
_chemical_formula_structural   LiI
_chemical_formula_sum   'Li4 I4'
_cell_volume   263.22953638
_cell_formula_units_Z   4
loop_
 _symmetry_equiv_pos_site_id
 _symmetry_equiv_pos_as_xyz
  1  'x, y, z'
loop_
 _atom_site_type_symbol
 _atom_site_label
 _atom_site_symmetry_multiplicity
 _atom_site_fract_x
 _atom_site_fract_y
 _atom_site_fract_z
 _atom_site_occupancy
  Li  Li0  1  0.25038344  0.42544495  0.31608956  1
  Li  Li1  1  0.75038329  0.07455506  0.31609158  1
  Li  Li2  1  0.74961662  0.57455497  0.81609030  1
  Li  Li3  1  0.24961655  0.92544502  0.81608829  1
  I  I4  1  0.74972813  0.39281704  0.81537412  1
  I  I5  1  0.24972793  0.10718296  0.81537682  1
  I  I6  1  0.25027199  0.60718289  0.31537689  1
  I  I7  1  0.75027205  0.89281713  0.31537416  1
