# generated using pymatgen
data_NaI
_symmetry_space_group_name_H-M   'P 1'
_cell_length_a   15.07536292
_cell_length_b   15.07591100
_cell_length_c   8.74153577
_cell_angle_alpha   90.00641905
_cell_angle_beta   89.99639292
_cell_angle_gamma   120.00986467
_symmetry_Int_Tables_number   1
_chemical_formula_structural   NaI
_chemical_formula_sum   'Na18 I18'
_cell_volume   1720.38849735
_cell_formula_units_Z   18
loop_
 _symmetry_equiv_pos_site_id
 _symmetry_equiv_pos_as_xyz
  1  'x, y, z'
loop_
 _atom_site_type_symbol
 _atom_site_label
 _atom_site_symmetry_multiplicity
 _atom_site_fract_x
 _atom_site_fract_y
 _atom_site_fract_z
 _atom_site_occupancy
  Na  Na0  1  0.24515929  0.00077004  0.75107431  1
  Na  Na1  1  0.91071169  0.57808405  0.58216065  1
  Na  Na2  1  0.75484083  0.99923008  0.24892560  1
  Na  Na3  1  0.75565053  0.75483643  0.75103499  1
  Na  Na4  1  0.66731543  0.08915734  0.58199319  1
  Na  Na5  1  0.00083783  0.75552652  0.24902100  1
  Na  Na6  1  0.66632225  0.57791108  0.08557236  1
  Na  Na7  1  0.99916208  0.24447351  0.75097906  1
  Na  Na8  1  0.24434954  0.24516353  0.24896484  1
  Na  Na9  1  0.33367764  0.42208888  0.91442741  1
  Na  Na10  1  0.33268439  0.91084270  0.41800666  1
  Na  Na11  1  0.42223418  0.08853819  0.08551317  1
  Na  Na12  1  0.57776572  0.91146154  0.91448678  1
  Na  Na13  1  0.08928839  0.42191595  0.41783939  1
  Na  Na14  1  0.91146708  0.33366265  0.08551338  1
  Na  Na15  1  0.08853294  0.66633735  0.91448668  1
  Na  Na16  1  0.42195965  0.33272874  0.58190592  1
  Na  Na17  1  0.57804052  0.66727138  0.41809395  1
  I  I18  1  0.54155464  -0.00137649  0.25066641  1
  I  I19  1  0.20980196  0.87483126  0.08264192  1
  I  I20  1  0.45844523  0.00137624  0.74933364  1
  I  I21  1  0.45705389  0.45845660  0.25066655  1
  I  I22  1  0.66494622  0.79018341  0.08264252  1
  I  I23  1  -0.00147232  0.45704588  0.74933401  1
  I  I24  1  0.66840475  0.87637044  0.58384403  1
  I  I25  1  0.00147239  0.54295417  0.25066617  1
  I  I26  1  0.54294612  0.54154344  0.74933346  1
  I  I27  1  0.33159540  0.12362966  0.41615599  1
  I  I28  1  0.33505389  0.20981664  0.91735755  1
  I  I29  1  0.12366286  0.79196845  0.58388440  1
  I  I30  1  0.87633704  0.20803165  0.41611571  1
  I  I31  1  0.79019791  0.12516874  0.91735815  1
  I  I32  1  0.20802389  0.33169325  0.58383237  1
  I  I33  1  0.79197609  0.66830666  0.41616767  1
  I  I34  1  0.12516122  0.33493643  0.08259318  1
  I  I35  1  0.87483880  0.66506359  0.91740690  1
