# generated using pymatgen
data_NaI
_symmetry_space_group_name_H-M   'P 1'
_cell_length_a   12.53940741
_cell_length_b   12.53939495
_cell_length_c   4.59765219
_cell_angle_alpha   90.00751939
_cell_angle_beta   90.01288271
_cell_angle_gamma   90.00000145
_symmetry_Int_Tables_number   1
_chemical_formula_structural   NaI
_chemical_formula_sum   'Na8 I8'
_cell_volume   722.91909074
_cell_formula_units_Z   8
loop_
 _symmetry_equiv_pos_site_id
 _symmetry_equiv_pos_as_xyz
  1  'x, y, z'
loop_
 _atom_site_type_symbol
 _atom_site_label
 _atom_site_symmetry_multiplicity
 _atom_site_fract_x
 _atom_site_fract_y
 _atom_site_fract_z
 _atom_site_occupancy
  Na  Na0  1  0.00012039  0.66203409  0.32071887  1
  Na  Na1  1  0.83793989  0.00013265  0.07053448  1
  Na  Na2  1  0.66205549  0.49987367  0.57044535  1
  Na  Na3  1  0.33793997  0.50013234  0.57053283  1
  Na  Na4  1  0.16205455  -0.00012622  0.07044874  1
  Na  Na5  1  0.50012016  0.16203369  0.82071529  1
  Na  Na6  1  0.49986128  0.83791795  0.82026535  1
  Na  Na7  1  -0.00013864  0.33791829  0.32026702  1
  I  I8  1  0.32794783  0.00032454  0.58177579  1
  I  I9  1  0.49968530  0.32793477  0.33205243  1
  I  I10  1  0.00030261  0.17207539  0.83176721  1
  I  I11  1  -0.00031500  0.82793468  0.83205533  1
  I  I12  1  0.50030283  0.67207487  0.33176597  1
  I  I13  1  0.82794768  0.50032496  0.08177151  1
  I  I14  1  0.17208818  0.49970738  0.08203947  1
  I  I15  1  0.67208747  -0.00029304  0.58204147  1
