# generated using pymatgen
data_LiBr
_symmetry_space_group_name_H-M   'P 1'
_cell_length_a   3.91191761
_cell_length_b   3.91181963
_cell_length_c   10.84855795
_cell_angle_alpha   90.00002192
_cell_angle_beta   89.99997940
_cell_angle_gamma   89.98732650
_symmetry_Int_Tables_number   1
_chemical_formula_structural   LiBr
_chemical_formula_sum   'Li4 Br4'
_cell_volume   166.01239837
_cell_formula_units_Z   4
loop_
 _symmetry_equiv_pos_site_id
 _symmetry_equiv_pos_as_xyz
  1  'x, y, z'
loop_
 _atom_site_type_symbol
 _atom_site_label
 _atom_site_symmetry_multiplicity
 _atom_site_fract_x
 _atom_site_fract_y
 _atom_site_fract_z
 _atom_site_occupancy
  Li  Li0  1  0.49521139  0.00069694  0.22310579  1
  Li  Li1  1  0.00076345  0.50484009  0.97145147  1
  Li  Li2  1  0.50478947  0.99930217  0.72310600  1
  Li  Li3  1  0.99923782  0.49515952  0.47145153  1
  Br  Br4  1  0.49916441  0.00259810  -0.02768794  1
  Br  Br5  1  0.00253396  0.50086248  0.72216815  1
  Br  Br6  1  0.50083384  -0.00259649  0.47231190  1
  Br  Br7  1  -0.00253433  0.49913720  0.22216787  1
