# generated using pymatgen
data_NaI
_symmetry_space_group_name_H-M   'P 1'
_cell_length_a   9.22752974
_cell_length_b   7.99934107
_cell_length_c   4.62190730
_cell_angle_alpha   54.74719013
_cell_angle_beta   89.99848321
_cell_angle_gamma   89.99622384
_symmetry_Int_Tables_number   1
_chemical_formula_structural   NaI
_chemical_formula_sum   'Na4 I4'
_cell_volume   278.59756707
_cell_formula_units_Z   4
loop_
 _symmetry_equiv_pos_site_id
 _symmetry_equiv_pos_as_xyz
  1  'x, y, z'
loop_
 _atom_site_type_symbol
 _atom_site_label
 _atom_site_symmetry_multiplicity
 _atom_site_fract_x
 _atom_site_fract_y
 _atom_site_fract_z
 _atom_site_occupancy
  Na  Na0  1  0.37447029  0.25111887  0.91327502  1
  Na  Na1  1  0.12553025  0.75112014  0.91328007  1
  Na  Na2  1  0.62554385  0.74863238  0.91312121  1
  Na  Na3  1  0.87445574  0.24863234  0.91312020  1
  I  I4  1  0.62460357  0.24943680  0.41385603  1
  I  I5  1  0.87539628  0.74943546  0.41386292  1
  I  I6  1  0.37543100  0.75081313  0.41222419  1
  I  I7  1  0.12456903  0.25081088  0.41222192  1
