# generated using pymatgen
data_LiI
_symmetry_space_group_name_H-M   'P 1'
_cell_length_a   8.35336965
_cell_length_b   8.35336045
_cell_length_c   6.65357048
_cell_angle_alpha   89.99659468
_cell_angle_beta   89.99762001
_cell_angle_gamma   120.00085489
_symmetry_Int_Tables_number   1
_chemical_formula_structural   LiI
_chemical_formula_sum   'Li6 I6'
_cell_volume   402.07268650
_cell_formula_units_Z   6
loop_
 _symmetry_equiv_pos_site_id
 _symmetry_equiv_pos_as_xyz
  1  'x, y, z'
loop_
 _atom_site_type_symbol
 _atom_site_label
 _atom_site_symmetry_multiplicity
 _atom_site_fract_x
 _atom_site_fract_y
 _atom_site_fract_z
 _atom_site_occupancy
  Li  Li0  1  0.00031191  0.49996618  0.32232194  1
  Li  Li1  1  0.50002982  0.50035311  0.32231639  1
  Li  Li2  1  -0.00031977  0.49964949  0.82231631  1
  Li  Li3  1  0.50035143  0.50002686  0.82231841  1
  Li  Li4  1  0.49996491  0.00030991  0.82232124  1
  Li  Li5  1  0.49964756  -0.00032137  0.32231882  1
  I  I6  1  0.82776667  0.65477446  0.07217221  1
  I  I7  1  0.34523482  0.17299611  0.07218838  1
  I  I8  1  0.17223226  0.82700231  0.57218246  1
  I  I9  1  0.17299399  0.34523563  0.57218194  1
  I  I10  1  0.65477864  0.82777093  0.57217456  1
  I  I11  1  0.82700777  0.17223639  0.07218243  1
