# generated using pymatgen
data_KI
_symmetry_space_group_name_H-M   'P 1'
_cell_length_a   4.98000365
_cell_length_b   8.63218701
_cell_length_c   8.65465764
_cell_angle_alpha   90.00000039
_cell_angle_beta   90.27198826
_cell_angle_gamma   89.99999758
_symmetry_Int_Tables_number   1
_chemical_formula_structural   KI
_chemical_formula_sum   'K4 I4'
_cell_volume   372.04502434
_cell_formula_units_Z   4
loop_
 _symmetry_equiv_pos_site_id
 _symmetry_equiv_pos_as_xyz
  1  'x, y, z'
loop_
 _atom_site_type_symbol
 _atom_site_label
 _atom_site_symmetry_multiplicity
 _atom_site_fract_x
 _atom_site_fract_y
 _atom_site_fract_z
 _atom_site_occupancy
  K  K0  1  0.74358005  0.25007096  -0.00017717  1
  K  K1  1  0.25641986  0.75007097  0.50017717  1
  K  K2  1  0.25641993  0.74992904  0.00017716  1
  K  K3  1  0.74358016  0.24992904  0.49982283  1
  I  I4  1  0.75543145  0.91594638  0.25030673  1
  I  I5  1  0.24456856  0.41594638  0.24969333  1
  I  I6  1  0.24456854  0.08405363  0.74969327  1
  I  I7  1  0.75543145  0.58405362  0.75030667  1
