# generated using pymatgen
data_LiBr
_symmetry_space_group_name_H-M   'P 1'
_cell_length_a   9.58447477
_cell_length_b   9.56418407
_cell_length_c   8.43710143
_cell_angle_alpha   90.00886154
_cell_angle_beta   89.97948164
_cell_angle_gamma   120.22447494
_symmetry_Int_Tables_number   1
_chemical_formula_structural   LiBr
_chemical_formula_sum   'Li9 Br9'
_cell_volume   668.27207168
_cell_formula_units_Z   9
loop_
 _symmetry_equiv_pos_site_id
 _symmetry_equiv_pos_as_xyz
  1  'x, y, z'
loop_
 _atom_site_type_symbol
 _atom_site_label
 _atom_site_symmetry_multiplicity
 _atom_site_fract_x
 _atom_site_fract_y
 _atom_site_fract_z
 _atom_site_occupancy
  Li  Li0  1  -0.20251049  0.59446454  -0.00105613  1
  Li  Li1  1  0.73907053  0.86911673  0.66676550  1
  Li  Li2  1  0.13055613  0.26130243  0.66550959  1
  Li  Li3  1  0.07241212  0.53564971  0.33323971  1
  Li  Li4  1  0.46367940  -0.07210253  0.33223392  1
  Li  Li5  1  0.46403247  0.53613956  0.33479696  1
  Li  Li6  1  0.40594609  0.20275200  -0.00014004  1
  Li  Li7  1  0.13032851  0.86955663  0.66794144  1
  Li  Li8  1  0.79679152  0.20254663  0.00138763  1
  Br  Br9  1  0.30485746  0.15395853  0.73057141  1
  Br  Br10  1  0.18186788  0.81891160  0.39884705  1
  Br  Br11  1  0.63780831  0.82053535  0.39751990  1
  Br  Br12  1  0.51584954  0.48593900  0.06574719  1
  Br  Br13  1  0.97124028  0.48671974  0.06404518  1
  Br  Br14  1  0.51296436  0.02746898  0.06238405  1
  Br  Br15  1  0.84876778  0.15242418  0.73243164  1
  Br  Br16  1  0.17997828  0.36075826  0.39556987  1
  Br  Br17  1  0.84635983  0.69385866  0.72895205  1
