# generated using pymatgen
data_LiI
_symmetry_space_group_name_H-M   'P 1'
_cell_length_a   8.55593680
_cell_length_b   8.55593331
_cell_length_c   11.85384209
_cell_angle_alpha   90.00195998
_cell_angle_beta   90.00239500
_cell_angle_gamma   90.00005815
_symmetry_Int_Tables_number   1
_chemical_formula_structural   LiI
_chemical_formula_sum   'Li16 I16'
_cell_volume   867.74894786
_cell_formula_units_Z   16
loop_
 _symmetry_equiv_pos_site_id
 _symmetry_equiv_pos_as_xyz
  1  'x, y, z'
loop_
 _atom_site_type_symbol
 _atom_site_label
 _atom_site_symmetry_multiplicity
 _atom_site_fract_x
 _atom_site_fract_y
 _atom_site_fract_z
 _atom_site_occupancy
  Li  Li0  1  0.49981699  0.74946617  0.31310889  1
  Li  Li1  1  0.24946055  0.49981503  0.56310793  1
  Li  Li2  1  0.50018481  0.74946430  0.81310835  1
  Li  Li3  1  0.50018213  0.25053723  0.31310820  1
  Li  Li4  1  0.75053940  0.50018334  0.56310857  1
  Li  Li5  1  0.25053944  -0.00018377  0.56310862  1
  Li  Li6  1  0.74946041  0.00018384  0.56310795  1
  Li  Li7  1  0.75054165  0.49981631  0.06310854  1
  Li  Li8  1  0.24946079  0.50018433  0.06310796  1
  Li  Li9  1  0.00018273  0.75053757  0.81310824  1
  Li  Li10  1  0.25053682  0.00018252  0.06310867  1
  Li  Li11  1  -0.00018239  0.24946180  0.81310895  1
  Li  Li12  1  0.74945585  -0.00018460  0.06310818  1
  Li  Li13  1  0.00018144  0.24946465  0.31310777  1
  Li  Li14  1  -0.00018227  0.75053592  0.31310945  1
  Li  Li15  1  0.49981617  0.25053980  0.81310938  1
  I  I16  1  0.50064900  0.25025706  0.06269368  1
  I  I17  1  0.75025651  0.50064916  0.31269344  1
  I  I18  1  0.49935170  0.25025566  0.56269366  1
  I  I19  1  0.49935348  0.74974358  0.06269338  1
  I  I20  1  0.24974367  0.49935107  0.31269482  1
  I  I21  1  0.74974360  0.00064839  0.31269320  1
  I  I22  1  0.25025710  -0.00064929  0.31269477  1
  I  I23  1  0.24974424  0.50064767  0.81269306  1
  I  I24  1  0.75025804  0.49935117  0.81269472  1
  I  I25  1  -0.00064669  0.24974351  0.56269364  1
  I  I26  1  0.74974354  -0.00064783  0.81269481  1
  I  I27  1  0.00064903  0.75025729  0.56269387  1
  I  I28  1  0.25025670  0.00064845  0.81269336  1
  I  I29  1  -0.00064885  0.75025576  0.06269345  1
  I  I30  1  0.00064680  0.24974164  0.06269350  1
  I  I31  1  0.50064760  0.74974229  0.56269377  1
