# generated using pymatgen
data_LiI
_symmetry_space_group_name_H-M   'P 1'
_cell_length_a   12.26279978
_cell_length_b   10.40694925
_cell_length_c   9.58137370
_cell_angle_alpha   90.00018153
_cell_angle_beta   89.99978430
_cell_angle_gamma   89.99544744
_symmetry_Int_Tables_number   1
_chemical_formula_structural   LiI
_chemical_formula_sum   'Li16 I16'
_cell_volume   1222.75895468
_cell_formula_units_Z   16
loop_
 _symmetry_equiv_pos_site_id
 _symmetry_equiv_pos_as_xyz
  1  'x, y, z'
loop_
 _atom_site_type_symbol
 _atom_site_label
 _atom_site_symmetry_multiplicity
 _atom_site_fract_x
 _atom_site_fract_y
 _atom_site_fract_z
 _atom_site_occupancy
  Li  Li0  1  0.85972357  0.00034826  0.43378623  1
  Li  Li1  1  0.14027616  -0.00034711  0.43378475  1
  Li  Li2  1  0.39036506  0.25034183  0.68377698  1
  Li  Li3  1  0.64027776  -0.00034778  0.93378585  1
  Li  Li4  1  0.89036555  0.25034292  0.18377784  1
  Li  Li5  1  0.10963386  0.24965683  0.68377638  1
  Li  Li6  1  0.35972291  0.00034910  0.93378671  1
  Li  Li7  1  0.89036671  0.75034214  0.68377726  1
  Li  Li8  1  0.10963305  0.74965628  0.18377787  1
  Li  Li9  1  0.35972388  0.50034942  0.43378571  1
  Li  Li10  1  0.64027585  0.49965201  0.43378617  1
  Li  Li11  1  0.39036815  0.75034191  0.18377829  1
  Li  Li12  1  0.60963343  0.24965748  0.18377764  1
  Li  Li13  1  0.60963495  0.74965728  0.68377761  1
  Li  Li14  1  0.85972239  0.50034877  0.93378540  1
  Li  Li15  1  0.14027748  0.49965270  0.93378533  1
  I  I16  1  0.74921038  -0.03941104  0.68328677  1
  I  I17  1  0.25079063  0.03940942  0.68328779  1
  I  I18  1  0.50066773  0.21056904  0.93338366  1
  I  I19  1  0.75078818  0.03941064  0.18328692  1
  I  I20  1  0.00066700  0.21056888  0.43338411  1
  I  I21  1  -0.00066845  0.28943152  0.93338491  1
  I  I22  1  0.24921193  -0.03941213  0.18328479  1
  I  I23  1  0.00066722  0.71056834  0.93338367  1
  I  I24  1  -0.00066695  0.78943113  0.43338422  1
  I  I25  1  0.24920954  0.46058928  0.68328680  1
  I  I26  1  0.75079029  0.53941069  0.68328802  1
  I  I27  1  0.50066712  0.71057031  0.43338414  1
  I  I28  1  0.49933119  0.28943010  0.43338538  1
  I  I29  1  0.49933275  0.78943094  0.93338413  1
  I  I30  1  0.74920995  0.46058948  0.18328768  1
  I  I31  1  0.25079074  0.53941136  0.18328859  1
