# generated using pymatgen
data_KI
_symmetry_space_group_name_H-M   'P 1'
_cell_length_a   8.58446141
_cell_length_b   5.00642264
_cell_length_c   8.65896868
_cell_angle_alpha   89.99997617
_cell_angle_beta   89.99999001
_cell_angle_gamma   89.99999989
_symmetry_Int_Tables_number   1
_chemical_formula_structural   KI
_chemical_formula_sum   'K4 I4'
_cell_volume   372.14032367
_cell_formula_units_Z   4
loop_
 _symmetry_equiv_pos_site_id
 _symmetry_equiv_pos_as_xyz
  1  'x, y, z'
loop_
 _atom_site_type_symbol
 _atom_site_label
 _atom_site_symmetry_multiplicity
 _atom_site_fract_x
 _atom_site_fract_y
 _atom_site_fract_z
 _atom_site_occupancy
  K  K0  1  0.74969329  0.25274619  -0.00955332  1
  K  K1  1  0.24969313  0.74725381  -0.00955326  1
  K  K2  1  0.25030688  0.74725380  0.49044642  1
  K  K3  1  0.75030672  0.25274621  0.49044637  1
  I  I4  1  0.91457744  0.75231257  0.24019865  1
  I  I5  1  0.41457741  0.24768744  0.24019856  1
  I  I6  1  0.08542258  0.24768747  0.74019849  1
  I  I7  1  0.58542254  0.75231251  0.74019858  1
