# generated using pymatgen
data_KBr
_symmetry_space_group_name_H-M   'P 1'
_cell_length_a   4.32206239
_cell_length_b   4.32206285
_cell_length_c   16.00188899
_cell_angle_alpha   89.99994854
_cell_angle_beta   90.00004720
_cell_angle_gamma   89.99999664
_symmetry_Int_Tables_number   1
_chemical_formula_structural   KBr
_chemical_formula_sum   'K4 Br4'
_cell_volume   298.91889167
_cell_formula_units_Z   4
loop_
 _symmetry_equiv_pos_site_id
 _symmetry_equiv_pos_as_xyz
  1  'x, y, z'
loop_
 _atom_site_type_symbol
 _atom_site_label
 _atom_site_symmetry_multiplicity
 _atom_site_fract_x
 _atom_site_fract_y
 _atom_site_fract_z
 _atom_site_occupancy
  K  K0  1  0.24977024  0.74924196  0.00592400  1
  K  K1  1  0.74924006  0.75023022  0.25592415  1
  K  K2  1  0.75023035  0.25075922  0.50592409  1
  K  K3  1  0.25075829  0.24976932  0.75592395  1
  Br  Br4  1  0.24896008  0.25188738  0.34322011  1
  Br  Br5  1  0.25188828  0.75103986  0.59322038  1
  Br  Br6  1  0.75103980  0.74811130  0.84322018  1
  Br  Br7  1  0.74811289  0.24896075  0.09321994  1
