# generated using pymatgen
data_LiBr
_symmetry_space_group_name_H-M   'P 1'
_cell_length_a   6.74866171
_cell_length_b   6.70729126
_cell_length_c   11.53109105
_cell_angle_alpha   55.61221508
_cell_angle_beta   106.28970288
_cell_angle_gamma   119.78929761
_symmetry_Int_Tables_number   1
_chemical_formula_structural   LiBr
_chemical_formula_sum   'Li9 Br9'
_cell_volume   373.81876811
_cell_formula_units_Z   9
loop_
 _symmetry_equiv_pos_site_id
 _symmetry_equiv_pos_as_xyz
  1  'x, y, z'
loop_
 _atom_site_type_symbol
 _atom_site_label
 _atom_site_symmetry_multiplicity
 _atom_site_fract_x
 _atom_site_fract_y
 _atom_site_fract_z
 _atom_site_occupancy
  Li  Li0  1  0.66691548  0.58260652  0.70220135  1
  Li  Li1  1  0.66620130  0.58318705  0.36755615  1
  Li  Li2  1  0.00016434  0.24921007  0.36893959  1
  Li  Li3  1  -0.00061246  0.24978170  0.03430777  1
  Li  Li4  1  0.33351137  -0.08410369  0.03549595  1
  Li  Li5  1  0.66706497  0.58348387  0.03494843  1
  Li  Li6  1  0.33279918  -0.08348898  0.70089386  1
  Li  Li7  1  0.33363138  -0.08324193  0.36823395  1
  Li  Li8  1  0.00033626  0.25013145  0.70161642  1
  Br  Br9  1  0.66669783  0.08355485  0.53488933  1
  Br  Br10  1  0.33328578  0.41718117  0.20142143  1
  Br  Br11  1  0.00006762  0.75022521  0.20159571  1
  Br  Br12  1  0.66663540  0.08380563  0.86810164  1
  Br  Br13  1  0.33331323  0.41691680  0.86823722  1
  Br  Br14  1  0.00002514  0.75002964  0.86837535  1
  Br  Br15  1  -0.00010043  0.75053606  0.53470951  1
  Br  Br16  1  0.66671680  0.08348462  0.20164155  1
  Br  Br17  1  0.33334681  0.41669997  0.53499622  1
