# generated using pymatgen
data_KI
_symmetry_space_group_name_H-M   'P 1'
_cell_length_a   22.65585593
_cell_length_b   13.78608083
_cell_length_c   4.88802368
_cell_angle_alpha   90.00006207
_cell_angle_beta   89.99886334
_cell_angle_gamma   89.99957169
_symmetry_Int_Tables_number   1
_chemical_formula_structural   KI
_chemical_formula_sum   'K16 I16'
_cell_volume   1526.70312884
_cell_formula_units_Z   16
loop_
 _symmetry_equiv_pos_site_id
 _symmetry_equiv_pos_as_xyz
  1  'x, y, z'
loop_
 _atom_site_type_symbol
 _atom_site_label
 _atom_site_symmetry_multiplicity
 _atom_site_fract_x
 _atom_site_fract_y
 _atom_site_fract_z
 _atom_site_occupancy
  K  K0  1  0.57088239  0.12621427  0.05909688  1
  K  K1  1  0.42911904  0.87378586  0.05909410  1
  K  K2  1  0.67911808  0.37621607  0.30912771  1
  K  K3  1  0.92911906  0.87378588  0.55909369  1
  K  K4  1  0.17911811  0.37621600  0.80912706  1
  K  K5  1  0.82088346  0.12378373  0.30913229  1
  K  K6  1  0.07088241  0.12621432  0.55909735  1
  K  K7  1  0.17911813  0.87621604  0.30912695  1
  K  K8  1  0.82088343  0.62378379  0.80913161  1
  K  K9  1  0.07088241  0.62621427  0.05909673  1
  K  K10  1  0.92911906  0.37378592  0.05909364  1
  K  K11  1  0.67911809  0.87621608  0.80912731  1
  K  K12  1  0.32088347  0.12378359  0.80913276  1
  K  K13  1  0.32088347  0.62378355  0.30913284  1
  K  K14  1  0.57088241  0.62621426  0.55909704  1
  K  K15  1  0.42911905  0.37378585  0.55909445  1
  I  I16  1  0.06820752  0.37453545  0.32275334  1
  I  I17  1  0.93179095  0.62546487  0.32273230  1
  I  I18  1  0.18178560  0.62453184  0.57267766  1
  I  I19  1  0.43179099  0.62546479  0.82273333  1
  I  I20  1  0.68178563  0.62453192  0.07267795  1
  I  I21  1  0.31821286  0.87546790  0.57269895  1
  I  I22  1  0.56820752  0.37453550  0.82275384  1
  I  I23  1  0.68178558  0.12453194  0.57267776  1
  I  I24  1  0.31821285  0.37546788  0.07269916  1
  I  I25  1  0.56820752  0.87453545  0.32275350  1
  I  I26  1  0.43179100  0.12546480  0.32273342  1
  I  I27  1  0.18178563  0.12453191  0.07267819  1
  I  I28  1  0.81821287  0.87546800  0.07269837  1
  I  I29  1  0.81821290  0.37546799  0.57269831  1
  I  I30  1  0.06820754  0.87453545  0.82275323  1
  I  I31  1  0.93179097  0.12546482  0.82273301  1
