# generated using pymatgen
data_LiI
_symmetry_space_group_name_H-M   'P 1'
_cell_length_a   12.25989033
_cell_length_b   9.96214004
_cell_length_c   9.65077717
_cell_angle_alpha   89.99997873
_cell_angle_beta   90.00004148
_cell_angle_gamma   89.98619974
_symmetry_Int_Tables_number   1
_chemical_formula_structural   LiI
_chemical_formula_sum   'Li16 I16'
_cell_volume   1178.69516778
_cell_formula_units_Z   16
loop_
 _symmetry_equiv_pos_site_id
 _symmetry_equiv_pos_as_xyz
  1  'x, y, z'
loop_
 _atom_site_type_symbol
 _atom_site_label
 _atom_site_symmetry_multiplicity
 _atom_site_fract_x
 _atom_site_fract_y
 _atom_site_fract_z
 _atom_site_occupancy
  Li  Li0  1  0.10938605  0.75062656  0.75883071  1
  Li  Li1  1  0.89061541  0.24937479  0.75882836  1
  Li  Li2  1  0.14071011  0.00061105  0.00888901  1
  Li  Li3  1  0.39061394  0.24937417  0.25882662  1
  Li  Li4  1  0.64071164  0.00061210  0.50888959  1
  Li  Li5  1  0.35928782  0.49938953  0.00888840  1
  Li  Li6  1  0.60938579  0.75062488  0.25883117  1
  Li  Li7  1  0.64071217  0.50061440  0.00888829  1
  Li  Li8  1  0.35928815  -0.00061422  0.50888883  1
  Li  Li9  1  0.60938590  0.25062493  0.75882879  1
  Li  Li10  1  0.39061488  0.74937609  0.75883005  1
  Li  Li11  1  0.14071147  0.50061345  0.50889009  1
  Li  Li12  1  0.85928871  0.49938842  0.50888906  1
  Li  Li13  1  0.85928766  -0.00061416  0.00888928  1
  Li  Li14  1  0.10938605  0.25062526  0.25882792  1
  Li  Li15  1  0.89061433  0.74937500  0.25883002  1
  I  I16  1  0.49953493  0.71896128  0.00938803  1
  I  I17  1  0.50046488  0.28104103  0.00938727  1
  I  I18  1  0.75048324  -0.03096832  0.25940887  1
  I  I19  1  0.00046632  0.28103906  0.50938728  1
  I  I20  1  0.25048366  -0.03096764  0.75940853  1
  I  I21  1  0.74951674  0.53096766  0.25940873  1
  I  I22  1  -0.00046533  0.71896169  0.50938857  1
  I  I23  1  0.25048359  0.46903276  0.25940834  1
  I  I24  1  0.74951562  0.03096673  0.75940925  1
  I  I25  1  -0.00046557  0.21895986  0.00938884  1
  I  I26  1  0.00046484  0.78103809  0.00938716  1
  I  I27  1  0.75048404  0.46903281  0.75940912  1
  I  I28  1  0.24951700  0.53096855  0.75940928  1
  I  I29  1  0.24951656  0.03096624  0.25940731  1
  I  I30  1  0.49953357  0.21895979  0.50938727  1
  I  I31  1  0.50046582  0.78103816  0.50938853  1
