# generated using pymatgen
data_LiBr
_symmetry_space_group_name_H-M   'P 1'
_cell_length_a   11.91997957
_cell_length_b   11.91997612
_cell_length_c   7.31578369
_cell_angle_alpha   90.00128712
_cell_angle_beta   89.99867246
_cell_angle_gamma   120.00151821
_symmetry_Int_Tables_number   1
_chemical_formula_structural   LiBr
_chemical_formula_sum   'Li18 Br18'
_cell_volume   900.19322406
_cell_formula_units_Z   18
loop_
 _symmetry_equiv_pos_site_id
 _symmetry_equiv_pos_as_xyz
  1  'x, y, z'
loop_
 _atom_site_type_symbol
 _atom_site_label
 _atom_site_symmetry_multiplicity
 _atom_site_fract_x
 _atom_site_fract_y
 _atom_site_fract_z
 _atom_site_occupancy
  Li  Li0  1  0.62362677  0.49864954  0.21617256  1
  Li  Li1  1  0.62362180  0.12497646  0.71617121  1
  Li  Li2  1  0.83478311  0.04309593  0.38234895  1
  Li  Li3  1  0.20830941  0.16521181  0.38232909  1
  Li  Li4  1  0.16812461  0.45834039  0.54949143  1
  Li  Li5  1  0.50136187  0.12497614  0.21617194  1
  Li  Li6  1  0.20830922  0.04309480  0.88234041  1
  Li  Li7  1  0.83479024  0.79168871  0.88233852  1
  Li  Li8  1  0.87502338  0.37637797  0.21616999  1
  Li  Li9  1  0.87502049  0.49863879  0.71616022  1
  Li  Li10  1  -0.04309517  0.16521740  0.88234673  1
  Li  Li11  1  -0.04309452  0.79169068  0.38234182  1
  Li  Li12  1  0.54165996  0.70978102  0.54948976  1
  Li  Li13  1  0.54165861  0.83187411  0.04948949  1
  Li  Li14  1  0.50135116  0.37637592  0.71617869  1
  Li  Li15  1  0.16811827  0.70978195  0.04951392  1
  Li  Li16  1  0.29021855  0.83188107  0.54951116  1
  Li  Li17  1  0.29021874  0.45833978  0.04949001  1
  Br  Br18  1  0.45803811  0.16792013  0.88436158  1
  Br  Br19  1  0.45804556  0.29012020  0.38436067  1
  Br  Br20  1  0.16532830  0.20859723  0.05075338  1
  Br  Br21  1  0.04326768  0.83467800  0.05075989  1
  Br  Br22  1  0.49868386  0.62341563  0.21784580  1
  Br  Br23  1  0.83207145  0.29011766  0.88436466  1
  Br  Br24  1  0.04326691  0.20859155  0.55075581  1
  Br  Br25  1  0.16532240  0.95673281  0.55075928  1
  Br  Br26  1  0.70988056  0.54195531  0.88436015  1
  Br  Br27  1  0.70988284  0.16792857  0.38436517  1
  Br  Br28  1  0.79140285  0.83467119  0.55075325  1
  Br  Br29  1  0.79140788  0.95673297  0.05075511  1
  Br  Br30  1  0.37658336  0.87526873  0.21785273  1
  Br  Br31  1  0.37658395  0.50131588  0.71784593  1
  Br  Br32  1  0.83208027  0.54196210  0.38436068  1
  Br  Br33  1  0.49869006  0.87527337  0.71784759  1
  Br  Br34  1  0.12472646  0.50130961  0.21784773  1
  Br  Br35  1  0.12473100  0.62341656  0.71785271  1
