# generated using pymatgen
data_LiBr
_symmetry_space_group_name_H-M   'P 1'
_cell_length_a   8.27203784
_cell_length_b   8.27205153
_cell_length_c   6.69933449
_cell_angle_alpha   90.00025485
_cell_angle_beta   89.99984354
_cell_angle_gamma   89.99980479
_symmetry_Int_Tables_number   1
_chemical_formula_structural   LiBr
_chemical_formula_sum   'Li8 Br8'
_cell_volume   458.41350669
_cell_formula_units_Z   8
loop_
 _symmetry_equiv_pos_site_id
 _symmetry_equiv_pos_as_xyz
  1  'x, y, z'
loop_
 _atom_site_type_symbol
 _atom_site_label
 _atom_site_symmetry_multiplicity
 _atom_site_fract_x
 _atom_site_fract_y
 _atom_site_fract_z
 _atom_site_occupancy
  Li  Li0  1  0.86059344  0.64011481  0.66607989  1
  Li  Li1  1  0.85988595  0.36059323  0.16607981  1
  Li  Li2  1  0.13940581  0.35988704  0.66608016  1
  Li  Li3  1  0.64011755  0.13940558  0.66607865  1
  Li  Li4  1  0.35988239  0.86059355  0.66607843  1
  Li  Li5  1  0.63940519  0.85988377  0.16607826  1
  Li  Li6  1  0.14011436  0.63940618  0.16607975  1
  Li  Li7  1  0.36059419  0.14011826  0.16607805  1
  Br  Br8  1  0.15722644  0.65670803  0.78676899  1
  Br  Br9  1  0.84329099  0.65722370  0.28676871  1
  Br  Br10  1  0.84277386  0.34329201  0.78677040  1
  Br  Br11  1  0.65670764  0.84277287  0.78676932  1
  Br  Br12  1  0.34329287  0.15722625  0.78676985  1
  Br  Br13  1  0.34277148  0.84329325  0.28677006  1
  Br  Br14  1  0.15670923  0.34277508  0.28676788  1
  Br  Br15  1  0.65722861  0.15670640  0.28676882  1
