# generated using pymatgen
data_LiI
_symmetry_space_group_name_H-M   'P 1'
_cell_length_a   4.30440216
_cell_length_b   4.30538290
_cell_length_c   10.00886593
_cell_angle_alpha   89.99574808
_cell_angle_beta   90.01108215
_cell_angle_gamma   120.01492609
_symmetry_Int_Tables_number   1
_chemical_formula_structural   LiI
_chemical_formula_sum   'Li3 I3'
_cell_volume   160.61081197
_cell_formula_units_Z   3
loop_
 _symmetry_equiv_pos_site_id
 _symmetry_equiv_pos_as_xyz
  1  'x, y, z'
loop_
 _atom_site_type_symbol
 _atom_site_label
 _atom_site_symmetry_multiplicity
 _atom_site_fract_x
 _atom_site_fract_y
 _atom_site_fract_z
 _atom_site_occupancy
  Li  Li0  1  0.33371932  0.33208635  0.41404758  1
  Li  Li1  1  0.66797087  0.00156140  0.74741619  1
  Li  Li2  1  -0.00171282  0.66633263  0.08074109  1
  I  I3  1  0.66723270  0.00027458  0.24760177  1
  I  I4  1  -0.00019176  0.66698486  0.58093405  1
  I  I5  1  0.33298169  0.33276019  0.91420112  1
