# generated using pymatgen
data_LiBr
_symmetry_space_group_name_H-M   'P 1'
_cell_length_a   3.89365631
_cell_length_b   3.89365623
_cell_length_c   11.00600264
_cell_angle_alpha   90.00010337
_cell_angle_beta   90.00009296
_cell_angle_gamma   90.00000390
_symmetry_Int_Tables_number   1
_chemical_formula_structural   LiBr
_chemical_formula_sum   'Li4 Br4'
_cell_volume   166.85715388
_cell_formula_units_Z   4
loop_
 _symmetry_equiv_pos_site_id
 _symmetry_equiv_pos_as_xyz
  1  'x, y, z'
loop_
 _atom_site_type_symbol
 _atom_site_label
 _atom_site_symmetry_multiplicity
 _atom_site_fract_x
 _atom_site_fract_y
 _atom_site_fract_z
 _atom_site_occupancy
  Li  Li0  1  0.50434042  -0.00389419  0.60115672  1
  Li  Li1  1  -0.00389455  0.49565944  0.85115705  1
  Li  Li2  1  0.49565910  0.00389424  0.10115667  1
  Li  Li3  1  0.00389425  0.50434131  0.35115627  1
  Br  Br4  1  0.50161747  0.00192723  0.35085442  1
  Br  Br5  1  0.00192752  0.49838228  0.60085436  1
  Br  Br6  1  0.49838290  -0.00192731  0.85085453  1
  Br  Br7  1  -0.00192711  0.50161700  0.10085454  1
