# generated using pymatgen
data_LiI
_symmetry_space_group_name_H-M   'P 1'
_cell_length_a   5.28922924
_cell_length_b   7.26821307
_cell_length_c   6.92205500
_cell_angle_alpha   89.99909945
_cell_angle_beta   90.00001465
_cell_angle_gamma   89.99885112
_symmetry_Int_Tables_number   1
_chemical_formula_structural   LiI
_chemical_formula_sum   'Li4 I4'
_cell_volume   266.10625634
_cell_formula_units_Z   4
loop_
 _symmetry_equiv_pos_site_id
 _symmetry_equiv_pos_as_xyz
  1  'x, y, z'
loop_
 _atom_site_type_symbol
 _atom_site_label
 _atom_site_symmetry_multiplicity
 _atom_site_fract_x
 _atom_site_fract_y
 _atom_site_fract_z
 _atom_site_occupancy
  Li  Li0  1  0.00101381  0.14777446  0.81555340  1
  Li  Li1  1  0.50101588  0.85222643  0.81555461  1
  Li  Li2  1  -0.00101354  0.85222575  0.31555591  1
  Li  Li3  1  0.49898526  0.14777244  0.31555582  1
  I  I4  1  0.50079363  0.23023748  0.70910616  1
  I  I5  1  0.00078244  0.76976408  0.70911288  1
  I  I6  1  0.49920849  0.76976323  0.20911321  1
  I  I7  1  -0.00078598  0.23023612  0.20910657  1
