# generated using pymatgen
data_KI
_symmetry_space_group_name_H-M   'P 1'
_cell_length_a   8.88272912
_cell_length_b   9.81549127
_cell_length_c   8.57047969
_cell_angle_alpha   89.99997439
_cell_angle_beta   90.00000099
_cell_angle_gamma   90.00000035
_symmetry_Int_Tables_number   1
_chemical_formula_structural   KI
_chemical_formula_sum   'K8 I8'
_cell_volume   747.24598395
_cell_formula_units_Z   8
loop_
 _symmetry_equiv_pos_site_id
 _symmetry_equiv_pos_as_xyz
  1  'x, y, z'
loop_
 _atom_site_type_symbol
 _atom_site_label
 _atom_site_symmetry_multiplicity
 _atom_site_fract_x
 _atom_site_fract_y
 _atom_site_fract_z
 _atom_site_occupancy
  K  K0  1  0.25172020  0.12607233  0.91821736  1
  K  K1  1  0.25172010  0.37392734  0.41821621  1
  K  K2  1  0.75172023  0.37392762  0.08178264  1
  K  K3  1  0.24827992  0.87392730  0.41821614  1
  K  K4  1  0.74827992  0.62607275  0.58178387  1
  K  K5  1  0.24827981  0.62607232  0.91821741  1
  K  K6  1  0.75172013  0.12607273  0.58178379  1
  K  K7  1  0.74827978  0.87392762  0.08178260  1
  I  I8  1  0.49898124  0.87634263  0.74895517  1
  I  I9  1  0.49898168  0.62365729  0.24895532  1
  I  I10  1  -0.00101877  0.62365737  0.25104488  1
  I  I11  1  0.00101833  0.12365737  0.24895519  1
  I  I12  1  0.50101835  0.37634262  0.75104476  1
  I  I13  1  0.00101871  0.37634265  0.74895517  1
  I  I14  1  -0.00101833  0.87634271  0.75104475  1
  I  I15  1  0.50101870  0.12365735  0.25104476  1
