# generated using pymatgen
data_KI
_symmetry_space_group_name_H-M   'P 1'
_cell_length_a   6.14461643
_cell_length_b   6.14628799
_cell_length_c   8.68051622
_cell_angle_alpha   90.00000223
_cell_angle_beta   89.99999508
_cell_angle_gamma   90.00000005
_symmetry_Int_Tables_number   1
_chemical_formula_structural   KI
_chemical_formula_sum   'K4 I4'
_cell_volume   327.83342934
_cell_formula_units_Z   4
loop_
 _symmetry_equiv_pos_site_id
 _symmetry_equiv_pos_as_xyz
  1  'x, y, z'
loop_
 _atom_site_type_symbol
 _atom_site_label
 _atom_site_symmetry_multiplicity
 _atom_site_fract_x
 _atom_site_fract_y
 _atom_site_fract_z
 _atom_site_occupancy
  K  K0  1  0.24963609  0.74928734  0.93570878  1
  K  K1  1  0.75036353  0.24928730  0.43570922  1
  K  K2  1  0.75036350  0.25071271  0.93570919  1
  K  K3  1  0.24963612  0.75071268  0.43570876  1
  I  I4  1  0.75055760  0.74966488  0.18715315  1
  I  I5  1  0.24944278  0.24966487  0.68715256  1
  I  I6  1  0.24944280  0.25033512  0.18715252  1
  I  I7  1  0.75055758  0.75033510  0.68715313  1
