# generated using pymatgen
data_NaI
_symmetry_space_group_name_H-M   'P 1'
_cell_length_a   15.68839117
_cell_length_b   15.70499668
_cell_length_c   15.66553560
_cell_angle_alpha   89.95122158
_cell_angle_beta   89.89455424
_cell_angle_gamma   89.89251390
_symmetry_Int_Tables_number   1
_chemical_formula_structural   NaI
_chemical_formula_sum   'Na24 I24'
_cell_volume   3859.75599514
_cell_formula_units_Z   24
loop_
 _symmetry_equiv_pos_site_id
 _symmetry_equiv_pos_as_xyz
  1  'x, y, z'
loop_
 _atom_site_type_symbol
 _atom_site_label
 _atom_site_symmetry_multiplicity
 _atom_site_fract_x
 _atom_site_fract_y
 _atom_site_fract_z
 _atom_site_occupancy
  Na  Na0  1  0.26962594  0.65103506  0.39944701  1
  Na  Na1  1  0.76919194  0.84907900  0.60071784  1
  Na  Na2  1  0.89883203  0.26942939  0.84890303  1
  Na  Na3  1  0.89935234  0.23066061  0.34850094  1
  Na  Na4  1  0.15125703  0.10070181  0.73069135  1
  Na  Na5  1  0.39916894  0.26935431  0.65118331  1
  Na  Na6  1  0.60105948  0.76915628  0.84920042  1
  Na  Na7  1  0.10115672  0.73054077  0.15108127  1
  Na  Na8  1  0.34816510  0.89941491  0.23049570  1
  Na  Na9  1  0.65064743  0.39964428  0.26912258  1
  Na  Na10  1  0.84910212  0.60047948  0.76877717  1
  Na  Na11  1  0.73048154  0.15150069  0.10120688  1
  Na  Na12  1  0.23039474  0.34906567  0.89920076  1
  Na  Na13  1  0.60075838  0.73065003  0.34880680  1
  Na  Na14  1  0.39895177  0.23085489  0.15079952  1
  Na  Na15  1  0.10067698  0.76932644  0.65151620  1
  Na  Na16  1  0.84874056  0.89928640  0.26930853  1
  Na  Na17  1  0.65177843  0.10060644  0.76944419  1
  Na  Na18  1  0.34937949  0.60036556  0.73089019  1
  Na  Na19  1  0.15091353  0.39951839  0.23125494  1
  Na  Na20  1  0.26952762  0.84850938  0.89875077  1
  Na  Na21  1  0.76959886  0.65093286  0.10082077  1
  Na  Na22  1  0.73039537  0.34900564  0.60057418  1
  Na  Na23  1  0.23083863  0.15089375  0.39925304  1
  I  I24  1  0.41310924  0.72845003  0.85766116  1
  I  I25  1  -0.08723338  0.77075078  0.14251315  1
  I  I26  1  0.35802534  0.41275388  0.77113755  1
  I  I27  1  0.35737410  0.08711883  0.27023089  1
  I  I28  1  0.22981221  0.64312576  0.58774453  1
  I  I29  1  0.85768560  0.41262308  0.72822001  1
  I  I30  1  0.14210046  -0.08712250  0.77119159  1
  I  I31  1  0.64198185  0.58724963  0.22889449  1
  I  I32  1  0.27093849  0.35830947  0.08742984  1
  I  I33  1  0.72850603  0.85715609  0.41268868  1
  I  I34  1  0.77181705  0.14148537  -0.08701714  1
  I  I35  1  0.58743027  0.22934598  0.64325490  1
  I  I36  1  0.08715743  0.27049456  0.35764138  1
  I  I37  1  0.14232567  0.58738440  0.27183666  1
  I  I38  1  0.85787767  0.08712559  0.22881085  1
  I  I39  1  0.64265254  -0.08713378  0.72973943  1
  I  I40  1  0.77025327  0.35690568  0.41226801  1
  I  I41  1  0.72903393  0.64167199  -0.08741070  1
  I  I42  1  0.27148296  0.14278148  0.58729377  1
  I  I43  1  0.22811911  0.85852561  0.08697664  1
  I  I44  1  0.41252750  0.77072974  0.35672455  1
  I  I45  1  -0.08712697  0.72947789  0.64237511  1
  I  I46  1  0.58691909  0.27155595  0.14235731  1
  I  I47  1  0.08723555  0.22922247  0.85748993  1
