# generated using pymatgen
data_LiBr
_symmetry_space_group_name_H-M   'P 1'
_cell_length_a   11.47623917
_cell_length_b   11.47623292
_cell_length_c   7.95220937
_cell_angle_alpha   90.00131273
_cell_angle_beta   89.99854331
_cell_angle_gamma   120.00519537
_symmetry_Int_Tables_number   1
_chemical_formula_structural   LiBr
_chemical_formula_sum   'Li18 Br18'
_cell_volume   906.97359468
_cell_formula_units_Z   18
loop_
 _symmetry_equiv_pos_site_id
 _symmetry_equiv_pos_as_xyz
  1  'x, y, z'
loop_
 _atom_site_type_symbol
 _atom_site_label
 _atom_site_symmetry_multiplicity
 _atom_site_fract_x
 _atom_site_fract_y
 _atom_site_fract_z
 _atom_site_occupancy
  Li  Li0  1  0.86889619  0.73982440  -0.02264939  1
  Li  Li1  1  0.86889244  0.12904019  0.47738464  1
  Li  Li2  1  0.59350381  0.79761844  0.14401749  1
  Li  Li3  1  0.20410674  0.40651465  0.14403938  1
  Li  Li4  1  0.92685439  0.46239666  0.31060921  1
  Li  Li5  1  0.26016562  0.12908453  -0.02263687  1
  Li  Li6  1  0.20412947  0.79760895  0.64400851  1
  Li  Li7  1  0.59348634  0.79589416  0.64404141  1
  Li  Li8  1  0.87096046  0.13110877  -0.02261516  1
  Li  Li9  1  0.87091403  0.73983294  0.47736272  1
  Li  Li10  1  0.20238264  0.40649704  0.64401641  1
  Li  Li11  1  0.20239077  0.79587112  0.14400772  1
  Li  Li12  1  0.53763184  0.46448200  0.31059819  1
  Li  Li13  1  0.53760375  0.07314666  0.81060641  1
  Li  Li14  1  0.26017377  0.13110166  0.47735158  1
  Li  Li15  1  0.92684687  0.46447314  0.81058498  1
  Li  Li16  1  0.53552724  0.07315331  0.31058205  1
  Li  Li17  1  0.53551558  0.46236578  0.81059795  1
  Br  Br18  1  0.45483581  0.90791859  0.57067650  1
  Br  Br19  1  0.45484442  0.54693456  0.07069963  1
  Br  Br20  1  0.42542323  0.21176697  0.73739072  1
  Br  Br21  1  0.78632818  0.57456784  0.73739101  1
  Br  Br22  1  0.75877229  0.88037299  0.90408145  1
  Br  Br23  1  0.09209985  0.54693081  0.57068380  1
  Br  Br24  1  0.78634665  0.21175387  0.23742627  1
  Br  Br25  1  0.42543048  0.21367064  0.23739051  1
  Br  Br26  1  0.45306637  0.54515712  0.57069999  1
  Br  Br27  1  0.45306913  0.90790046  0.07068291  1
  Br  Br28  1  0.78823173  0.57457509  0.23739195  1
  Br  Br29  1  0.78824678  0.21365436  0.73742597  1
  Br  Br30  1  0.11963745  0.87838709  0.90407594  1
  Br  Br31  1  0.11962864  0.24122915  0.40408071  1
  Br  Br32  1  0.09208269  0.54516528  0.07067742  1
  Br  Br33  1  0.75874846  0.87838714  0.40407954  1
  Br  Br34  1  0.12161407  0.24125235  0.90407850  1
  Br  Br35  1  0.12161183  0.88036129  0.40407622  1
