# generated using pymatgen
data_LiI
_symmetry_space_group_name_H-M   'P 1'
_cell_length_a   8.59680204
_cell_length_b   8.59678130
_cell_length_c   13.86025118
_cell_angle_alpha   90.00017483
_cell_angle_beta   89.99960411
_cell_angle_gamma   90.00036427
_symmetry_Int_Tables_number   1
_chemical_formula_structural   LiI
_chemical_formula_sum   'Li16 I16'
_cell_volume   1024.33946563
_cell_formula_units_Z   16
loop_
 _symmetry_equiv_pos_site_id
 _symmetry_equiv_pos_as_xyz
  1  'x, y, z'
loop_
 _atom_site_type_symbol
 _atom_site_label
 _atom_site_symmetry_multiplicity
 _atom_site_fract_x
 _atom_site_fract_y
 _atom_site_fract_z
 _atom_site_occupancy
  Li  Li0  1  0.81061912  0.30918673  0.91301393  1
  Li  Li1  1  0.80918224  0.81061979  0.16301401  1
  Li  Li2  1  0.18938393  0.30918058  0.41301390  1
  Li  Li3  1  0.18938008  0.69081722  0.91301411  1
  Li  Li4  1  0.19081540  0.18938013  0.16301359  1
  Li  Li5  1  0.69081970  0.31061658  0.16301406  1
  Li  Li6  1  0.30918255  0.68937910  0.16301408  1
  Li  Li7  1  0.19082112  0.81061465  0.66301380  1
  Li  Li8  1  0.80918777  0.18937868  0.66301463  1
  Li  Li9  1  0.68938010  0.19081790  0.41301376  1
  Li  Li10  1  0.69081624  0.68938185  0.66301226  1
  Li  Li11  1  0.31061871  0.80918624  0.41301321  1
  Li  Li12  1  0.30918553  0.31061837  0.66301252  1
  Li  Li13  1  0.68938398  0.80918311  0.91301311  1
  Li  Li14  1  0.31061716  0.19081776  0.91301391  1
  Li  Li15  1  0.81061712  0.69081805  0.41301447  1
  I  I16  1  0.55635853  0.25042613  0.78788097  1
  I  I17  1  0.75042700  0.55635808  0.03788163  1
  I  I18  1  0.44364308  0.25042965  0.28788027  1
  I  I19  1  0.44364418  0.74956701  0.78788145  1
  I  I20  1  0.24956649  0.44364277  0.03788133  1
  I  I21  1  0.74957143  0.05635750  0.03788060  1
  I  I22  1  0.25042880  0.94364194  0.03788106  1
  I  I23  1  0.24957080  0.55635695  0.53787954  1
  I  I24  1  0.75042801  0.44364270  0.53788157  1
  I  I25  1  0.94364363  0.24957019  0.28788201  1
  I  I26  1  0.74956708  0.94364333  0.53788042  1
  I  I27  1  0.05635630  0.75043045  0.28788147  1
  I  I28  1  0.25042632  0.05635530  0.53788199  1
  I  I29  1  0.94364302  0.75043288  0.78787948  1
  I  I30  1  0.05635812  0.24957661  0.78788110  1
  I  I31  1  0.55635649  0.74957176  0.28788109  1
