# generated using pymatgen
data_LiBr
_symmetry_space_group_name_H-M   'P 1'
_cell_length_a   6.67846884
_cell_length_b   3.86243022
_cell_length_c   6.44541962
_cell_angle_alpha   90.00001916
_cell_angle_beta   90.00006470
_cell_angle_gamma   90.00000024
_symmetry_Int_Tables_number   1
_chemical_formula_structural   LiBr
_chemical_formula_sum   'Li4 Br4'
_cell_volume   166.26037180
_cell_formula_units_Z   4
loop_
 _symmetry_equiv_pos_site_id
 _symmetry_equiv_pos_as_xyz
  1  'x, y, z'
loop_
 _atom_site_type_symbol
 _atom_site_label
 _atom_site_symmetry_multiplicity
 _atom_site_fract_x
 _atom_site_fract_y
 _atom_site_fract_z
 _atom_site_occupancy
  Li  Li0  1  0.24943637  0.74857893  0.67784032  1
  Li  Li1  1  0.74943641  0.25142080  0.67784037  1
  Li  Li2  1  0.75056371  0.25142066  0.17783966  1
  Li  Li3  1  0.25056375  0.74857904  0.17783963  1
  Br  Br4  1  0.58287380  0.75051075  0.92833050  1
  Br  Br5  1  0.08287378  0.24948953  0.92833052  1
  Br  Br6  1  0.41712610  0.24948968  0.42833054  1
  Br  Br7  1  0.91712608  0.75051059  0.42833054  1
