# generated using pymatgen
data_LiI
_symmetry_space_group_name_H-M   'P 1'
_cell_length_a   13.40132880
_cell_length_b   13.40279641
_cell_length_c   13.40153278
_cell_angle_alpha   89.99665410
_cell_angle_beta   89.99876436
_cell_angle_gamma   90.00862074
_symmetry_Int_Tables_number   1
_chemical_formula_structural   LiI
_chemical_formula_sum   'Li24 I24'
_cell_volume   2407.12005053
_cell_formula_units_Z   24
loop_
 _symmetry_equiv_pos_site_id
 _symmetry_equiv_pos_as_xyz
  1  'x, y, z'
loop_
 _atom_site_type_symbol
 _atom_site_label
 _atom_site_symmetry_multiplicity
 _atom_site_fract_x
 _atom_site_fract_y
 _atom_site_fract_z
 _atom_site_occupancy
  Li  Li0  1  0.25648949  0.84011972  0.07655089  1
  Li  Li1  1  0.75652128  0.65986734  0.92353531  1
  Li  Li2  1  0.57644955  0.25647944  0.66001407  1
  Li  Li3  1  0.57635942  0.24355589  0.16015657  1
  Li  Li4  1  0.34005528  0.42358888  0.74357430  1
  Li  Li5  1  0.07653664  0.25666419  0.83969229  1
  Li  Li6  1  0.92353188  0.75647459  0.65964206  1
  Li  Li7  1  0.42343998  0.74346121  0.33983874  1
  Li  Li8  1  0.16010024  0.57656657  0.24349943  1
  Li  Li9  1  0.84002821  0.07643800  0.25648844  1
  Li  Li10  1  0.66015497  0.92348399  0.75661586  1
  Li  Li11  1  0.74343842  0.33959450  0.42344316  1
  Li  Li12  1  0.24353602  0.16006965  0.57648969  1
  Li  Li13  1  0.92356264  0.74341219  0.16005180  1
  Li  Li14  1  0.07652823  0.24341608  0.33981817  1
  Li  Li15  1  0.42352615  0.75654999  0.84014183  1
  Li  Li16  1  0.66020677  0.57633192  0.25656671  1
  Li  Li17  1  0.84006188  0.42350918  0.75657077  1
  Li  Li18  1  0.15984528  0.92344713  0.74347990  1
  Li  Li19  1  0.33972650  0.07659326  0.24345438  1
  Li  Li20  1  0.25657606  0.66016503  0.57650588  1
  Li  Li21  1  0.75650908  0.84016336  0.42343564  1
  Li  Li22  1  0.74337847  0.16007413  0.92351446  1
  Li  Li23  1  0.24345146  0.33991119  0.07642346  1
  I  I24  1  0.59789570  0.11128069  0.79496523  1
  I  I25  1  0.09810870  0.38857780  0.20497975  1
  I  I26  1  0.29506502  0.59792131  0.38866672  1
  I  I27  1  0.29504258  0.90202368  0.88851958  1
  I  I28  1  0.61145187  0.70515422  0.40175152  1
  I  I29  1  0.79518224  0.59780621  0.11145195  1
  I  I30  1  0.20493612  0.09800169  0.38864496  1
  I  I31  1  0.70514837  0.40171925  0.61144527  1
  I  I32  1  0.88855470  0.29510069  0.90200567  1
  I  I33  1  0.11139483  0.79503830  0.59783936  1
  I  I34  1  0.38847357  0.20493104  0.09808352  1
  I  I35  1  0.40190276  0.61158093  0.70513309  1
  I  I36  1  0.90200474  0.88849440  0.29505001  1
  I  I37  1  0.20486642  0.40207876  0.88853563  1
  I  I38  1  0.79506675  0.90204066  0.61144098  1
  I  I39  1  0.70494613  0.09817991  0.11152085  1
  I  I40  1  0.38857258  0.29524429  0.59800273  1
  I  I41  1  0.11145062  0.70511263  0.09812519  1
  I  I42  1  0.88853401  0.20474098  0.40194841  1
  I  I43  1  0.61151904  0.79498924  0.90211739  1
  I  I44  1  0.59789448  0.38851236  0.29532388  1
  I  I45  1  0.09809695  0.11142310  0.70509191  1
  I  I46  1  0.40188796  0.88861264  0.20495881  1
  I  I47  1  0.90198993  0.61149779  0.79489377  1
