# generated using pymatgen
data_NaI
_symmetry_space_group_name_H-M   'P 1'
_cell_length_a   5.31565487
_cell_length_b   9.66741357
_cell_length_c   8.29483346
_cell_angle_alpha   89.99810247
_cell_angle_beta   128.60978994
_cell_angle_gamma   90.00048927
_symmetry_Int_Tables_number   1
_chemical_formula_structural   NaI
_chemical_formula_sum   'Na4 I4'
_cell_volume   333.08559790
_cell_formula_units_Z   4
loop_
 _symmetry_equiv_pos_site_id
 _symmetry_equiv_pos_as_xyz
  1  'x, y, z'
loop_
 _atom_site_type_symbol
 _atom_site_label
 _atom_site_symmetry_multiplicity
 _atom_site_fract_x
 _atom_site_fract_y
 _atom_site_fract_z
 _atom_site_occupancy
  Na  Na0  1  0.28603764  0.16586574  0.74313936  1
  Na  Na1  1  0.71394678  0.66586396  0.75685728  1
  Na  Na2  1  0.71396235  0.83413426  0.25686063  1
  Na  Na3  1  0.28605321  0.33413605  0.24314272  1
  I  I4  1  0.78865775  0.34165805  0.74619009  1
  I  I5  1  0.21135341  0.84165566  0.75380986  1
  I  I6  1  0.21134226  0.65834195  0.25380991  1
  I  I7  1  0.78864659  0.15834434  0.24619014  1
