# generated using pymatgen
data_LiBr
_symmetry_space_group_name_H-M   'P 1'
_cell_length_a   5.50389136
_cell_length_b   5.51505205
_cell_length_c   5.50066548
_cell_angle_alpha   90.00000305
_cell_angle_beta   90.09628158
_cell_angle_gamma   90.00000317
_symmetry_Int_Tables_number   1
_chemical_formula_structural   LiBr
_chemical_formula_sum   'Li4 Br4'
_cell_volume   166.96832449
_cell_formula_units_Z   4
loop_
 _symmetry_equiv_pos_site_id
 _symmetry_equiv_pos_as_xyz
  1  'x, y, z'
loop_
 _atom_site_type_symbol
 _atom_site_label
 _atom_site_symmetry_multiplicity
 _atom_site_fract_x
 _atom_site_fract_y
 _atom_site_fract_z
 _atom_site_occupancy
  Li  Li0  1  0.04274260  0.74888205  0.99526063  1
  Li  Li1  1  0.54274218  0.24888194  0.99526166  1
  Li  Li2  1  0.04275451  0.25111841  0.49526027  1
  Li  Li3  1  0.54275456  0.75111872  0.49526157  1
  Br  Br4  1  0.54228138  0.74916011  -0.00461742  1
  Br  Br5  1  0.04228127  0.24916012  -0.00461743  1
  Br  Br6  1  0.54228381  0.25083933  0.49538274  1
  Br  Br7  1  0.04228384  0.75083931  0.49538269  1
