# generated using pymatgen
data_LiBr
_symmetry_space_group_name_H-M   'P 1'
_cell_length_a   4.21657484
_cell_length_b   4.21648318
_cell_length_c   9.77956605
_cell_angle_alpha   89.99291260
_cell_angle_beta   90.00833159
_cell_angle_gamma   120.00294045
_symmetry_Int_Tables_number   1
_chemical_formula_structural   LiBr
_chemical_formula_sum   'Li3 Br3'
_cell_volume   150.57314698
_cell_formula_units_Z   3
loop_
 _symmetry_equiv_pos_site_id
 _symmetry_equiv_pos_as_xyz
  1  'x, y, z'
loop_
 _atom_site_type_symbol
 _atom_site_label
 _atom_site_symmetry_multiplicity
 _atom_site_fract_x
 _atom_site_fract_y
 _atom_site_fract_z
 _atom_site_occupancy
  Li  Li0  1  0.00418085  0.67209868  0.33166639  1
  Li  Li1  1  0.32792533  0.33214270  -0.00168075  1
  Li  Li2  1  0.66783204  -0.00418091  0.66504988  1
  Br  Br3  1  0.33386330  0.32922594  0.74121359  1
  Br  Br4  1  0.67077287  0.00460572  0.40783636  1
  Br  Br5  1  -0.00457439  0.66610789  0.07452621  1
