# generated using pymatgen
data_NaBr
_symmetry_space_group_name_H-M   'P 1'
_cell_length_a   3.80937922
_cell_length_b   7.13629788
_cell_length_c   4.14632065
_cell_angle_alpha   89.99985209
_cell_angle_beta   90.03122308
_cell_angle_gamma   90.00001846
_symmetry_Int_Tables_number   1
_chemical_formula_structural   NaBr
_chemical_formula_sum   'Na2 Br2'
_cell_volume   112.71714972
_cell_formula_units_Z   2
loop_
 _symmetry_equiv_pos_site_id
 _symmetry_equiv_pos_as_xyz
  1  'x, y, z'
loop_
 _atom_site_type_symbol
 _atom_site_label
 _atom_site_symmetry_multiplicity
 _atom_site_fract_x
 _atom_site_fract_y
 _atom_site_fract_z
 _atom_site_occupancy
  Na  Na0  1  0.00018177  0.28728698  0.74630987  1
  Na  Na1  1  -0.00018167  0.78728708  0.25367926  1
  Br  Br2  1  0.50128944  0.12110157  0.24787580  1
  Br  Br3  1  0.49871046  0.62110149  0.75213507  1
