# generated using pymatgen
data_NaI
_symmetry_space_group_name_H-M   'P 1'
_cell_length_a   7.75241275
_cell_length_b   9.10174355
_cell_length_c   9.10715811
_cell_angle_alpha   119.91962636
_cell_angle_beta   90.00216343
_cell_angle_gamma   90.00007890
_symmetry_Int_Tables_number   1
_chemical_formula_structural   NaI
_chemical_formula_sum   'Na8 I8'
_cell_volume   556.96275530
_cell_formula_units_Z   8
loop_
 _symmetry_equiv_pos_site_id
 _symmetry_equiv_pos_as_xyz
  1  'x, y, z'
loop_
 _atom_site_type_symbol
 _atom_site_label
 _atom_site_symmetry_multiplicity
 _atom_site_fract_x
 _atom_site_fract_y
 _atom_site_fract_z
 _atom_site_occupancy
  Na  Na0  1  0.50001894  0.25017420  0.78747931  1
  Na  Na1  1  -0.00002427  0.74972259  0.28622551  1
  Na  Na2  1  0.00009086  0.75026424  0.78759179  1
  Na  Na3  1  0.50005505  0.74961137  0.78620933  1
  Na  Na4  1  0.00009173  0.24966860  0.78624373  1
  Na  Na5  1  -0.00002251  0.25034003  0.28758131  1
  Na  Na6  1  0.49993267  0.24961139  0.28618892  1
  Na  Na7  1  0.49993787  0.75019501  0.28754269  1
  I  I8  1  0.74943720  0.58278196  -0.04708909  1
  I  I9  1  0.25035299  0.41721749  0.62055811  1
  I  I10  1  0.75053334  0.08286569  -0.04696776  1
  I  I11  1  0.24963364  0.41728723  0.12059851  1
  I  I12  1  0.25034976  0.91725649  0.12062987  1
  I  I13  1  0.75053285  0.58288746  0.45297083  1
  I  I14  1  0.24962535  0.91728060  0.62068557  1
  I  I15  1  0.74945452  0.08283564  0.45296874  1
