# generated using pymatgen
data_LiBr
_symmetry_space_group_name_H-M   'P 1'
_cell_length_a   3.89243851
_cell_length_b   5.54964941
_cell_length_c   7.68607643
_cell_angle_alpha   90.00003214
_cell_angle_beta   89.99900469
_cell_angle_gamma   89.99998540
_symmetry_Int_Tables_number   1
_chemical_formula_structural   LiBr
_chemical_formula_sum   'Li4 Br4'
_cell_volume   166.03207972
_cell_formula_units_Z   4
loop_
 _symmetry_equiv_pos_site_id
 _symmetry_equiv_pos_as_xyz
  1  'x, y, z'
loop_
 _atom_site_type_symbol
 _atom_site_label
 _atom_site_symmetry_multiplicity
 _atom_site_fract_x
 _atom_site_fract_y
 _atom_site_fract_z
 _atom_site_occupancy
  Li  Li0  1  0.25054016  0.49945009  0.62518147  1
  Li  Li1  1  0.74945937  -0.00055014  0.87481580  1
  Li  Li2  1  0.24945885  0.50054934  0.12519183  1
  Li  Li3  1  0.75054156  0.00055154  0.37480801  1
  Br  Br4  1  0.74913989  0.50019391  0.37452549  1
  Br  Br5  1  0.25085966  0.00019399  0.12547577  1
  Br  Br6  1  0.75085339  0.49980471  0.87452375  1
  Br  Br7  1  0.24914712  -0.00019343  0.62547789  1
