# generated using pymatgen
data_LiBr
_symmetry_space_group_name_H-M   'P 1'
_cell_length_a   10.79905598
_cell_length_b   7.36410080
_cell_length_c   3.68064380
_cell_angle_alpha   90.00023972
_cell_angle_beta   90.00023027
_cell_angle_gamma   90.00010441
_symmetry_Int_Tables_number   1
_chemical_formula_structural   LiBr
_chemical_formula_sum   'Li4 Br4'
_cell_volume   292.70443771
_cell_formula_units_Z   4
loop_
 _symmetry_equiv_pos_site_id
 _symmetry_equiv_pos_as_xyz
  1  'x, y, z'
loop_
 _atom_site_type_symbol
 _atom_site_label
 _atom_site_symmetry_multiplicity
 _atom_site_fract_x
 _atom_site_fract_y
 _atom_site_fract_z
 _atom_site_occupancy
  Li  Li0  1  0.74990787  0.23810810  0.40483949  1
  Li  Li1  1  0.75009192  0.73810820  0.40483871  1
  Li  Li2  1  0.25009212  0.76189185  0.40484023  1
  Li  Li3  1  0.24990803  0.26189210  0.40484068  1
  Br  Br4  1  0.75371759  0.48737925  0.90432109  1
  Br  Br5  1  0.74628132  -0.01261984  0.90431965  1
  Br  Br6  1  0.24628238  0.51261876  0.90432356  1
  Br  Br7  1  0.25371876  0.01262158  0.90432276  1
