# generated using pymatgen
data_LiBr
_symmetry_space_group_name_H-M   'P 1'
_cell_length_a   7.24346491
_cell_length_b   7.24346369
_cell_length_c   3.86992616
_cell_angle_alpha   90.00006862
_cell_angle_beta   90.00022006
_cell_angle_gamma   90.00002966
_symmetry_Int_Tables_number   1
_chemical_formula_structural   LiBr
_chemical_formula_sum   'Li4 Br4'
_cell_volume   203.04641535
_cell_formula_units_Z   4
loop_
 _symmetry_equiv_pos_site_id
 _symmetry_equiv_pos_as_xyz
  1  'x, y, z'
loop_
 _atom_site_type_symbol
 _atom_site_label
 _atom_site_symmetry_multiplicity
 _atom_site_fract_x
 _atom_site_fract_y
 _atom_site_fract_z
 _atom_site_occupancy
  Li  Li0  1  0.66207942  0.16270311  0.40873840  1
  Li  Li1  1  0.16270366  0.33792059  0.65873973  1
  Li  Li2  1  0.33792151  0.83729549  0.90874637  1
  Li  Li3  1  0.83729536  0.66207868  0.15874651  1
  Br  Br4  1  0.67091204  0.82927859  0.65922184  1
  Br  Br5  1  0.82927810  0.32908835  0.90921671  1
  Br  Br6  1  0.32908802  0.17072250  0.15921746  1
  Br  Br7  1  0.17072190  0.67091268  0.40922175  1
