# generated using pymatgen
data_LiBr
_symmetry_space_group_name_H-M   'P 1'
_cell_length_a   11.53010867
_cell_length_b   11.53011142
_cell_length_c   7.92218817
_cell_angle_alpha   90.00150208
_cell_angle_beta   89.99844252
_cell_angle_gamma   120.00190902
_symmetry_Int_Tables_number   1
_chemical_formula_structural   LiBr
_chemical_formula_sum   'Li18 Br18'
_cell_volume   912.08294525
_cell_formula_units_Z   18
loop_
 _symmetry_equiv_pos_site_id
 _symmetry_equiv_pos_as_xyz
  1  'x, y, z'
loop_
 _atom_site_type_symbol
 _atom_site_label
 _atom_site_symmetry_multiplicity
 _atom_site_fract_x
 _atom_site_fract_y
 _atom_site_fract_z
 _atom_site_occupancy
  Li  Li0  1  0.74021586  0.86875903  0.83743529  1
  Li  Li1  1  0.74022360  0.87145541  0.33743570  1
  Li  Li2  1  0.46465012  0.92645068  0.00404118  1
  Li  Li3  1  0.46180336  0.53535100  0.00403510  1
  Li  Li4  1  0.79791176  0.20480135  0.17065532  1
  Li  Li5  1  0.13123191  0.87145319  0.83743048  1
  Li  Li6  1  0.46180186  0.92644983  0.50403327  1
  Li  Li7  1  0.46464698  0.53819564  0.50403631  1
  Li  Li8  1  0.12854483  0.25977724  0.83743549  1
  Li  Li9  1  0.12854803  0.86876921  0.33742955  1
  Li  Li10  1  0.07354959  0.53535109  0.50404201  1
  Li  Li11  1  0.07354946  0.53819815  0.00403673  1
  Li  Li12  1  0.79519368  0.59309888  0.17065699  1
  Li  Li13  1  0.79519831  0.20208678  0.67065403  1
  Li  Li14  1  0.13124081  0.25978380  0.33743656  1
  Li  Li15  1  0.79791537  0.59311215  0.67065968  1
  Li  Li16  1  0.40688818  0.20208649  0.17066047  1
  Li  Li17  1  0.40690056  0.20480598  0.67065846  1
  Br  Br18  1  0.87813444  0.75887328  0.41001839  1
  Br  Br19  1  0.87812508  0.11925262  0.90999994  1
  Br  Br20  1  0.57443691  0.78851144  0.57679765  1
  Br  Br21  1  0.21407196  0.42556368  0.57680232  1
  Br  Br22  1  0.90781534  0.45260516  0.74330783  1
  Br  Br23  1  0.24112761  0.11926355  0.41002002  1
  Br  Br24  1  0.21407634  0.78851700  0.07678462  1
  Br  Br25  1  0.57443666  0.78592715  0.07680284  1
  Br  Br26  1  0.88074572  0.12187288  0.40999943  1
  Br  Br27  1  0.88073762  0.75887274  0.91001717  1
  Br  Br28  1  0.21148912  0.42556267  0.07679770  1
  Br  Br29  1  0.21148258  0.78592376  0.57678581  1
  Br  Br30  1  0.54740099  0.45522082  0.74328928  1
  Br  Br31  1  0.54739356  0.09218377  0.24330440  1
  Br  Br32  1  0.24112794  0.12186772  0.91001829  1
  Br  Br33  1  0.90781751  0.45521337  0.24330788  1
  Br  Br34  1  0.54478660  0.09218132  0.74330626  1
  Br  Br35  1  0.54477973  0.45260115  0.24328978  1
