# generated using pymatgen
data_NaI
_symmetry_space_group_name_H-M   'P 1'
_cell_length_a   8.29590215
_cell_length_b   8.00431001
_cell_length_c   5.22300760
_cell_angle_alpha   90.00219635
_cell_angle_beta   89.99910318
_cell_angle_gamma   89.99949652
_symmetry_Int_Tables_number   1
_chemical_formula_structural   NaI
_chemical_formula_sum   'Na4 I4'
_cell_volume   346.82323045
_cell_formula_units_Z   4
loop_
 _symmetry_equiv_pos_site_id
 _symmetry_equiv_pos_as_xyz
  1  'x, y, z'
loop_
 _atom_site_type_symbol
 _atom_site_label
 _atom_site_symmetry_multiplicity
 _atom_site_fract_x
 _atom_site_fract_y
 _atom_site_fract_z
 _atom_site_occupancy
  Na  Na0  1  0.09652617  0.33193877  0.04782037  1
  Na  Na1  1  0.59652671  0.16806081  0.04784605  1
  Na  Na2  1  0.90347320  0.66806088  0.54784645  1
  Na  Na3  1  0.40347335  0.83193941  0.54781808  1
  I  I4  1  0.26272496  0.98721343  0.04596845  1
  I  I5  1  0.76272320  0.51278679  0.04598125  1
  I  I6  1  0.73727664  0.01278666  0.54597421  1
  I  I7  1  0.23727577  0.48721325  0.54596470  1
