# generated using pymatgen
data_LiBr
_symmetry_space_group_name_H-M   'P 1'
_cell_length_a   10.03718193
_cell_length_b   10.03569908
_cell_length_c   8.48050625
_cell_angle_alpha   89.99865383
_cell_angle_beta   89.99925928
_cell_angle_gamma   89.99676052
_symmetry_Int_Tables_number   1
_chemical_formula_structural   LiBr
_chemical_formula_sum   'Li16 Br16'
_cell_volume   854.24255797
_cell_formula_units_Z   16
loop_
 _symmetry_equiv_pos_site_id
 _symmetry_equiv_pos_as_xyz
  1  'x, y, z'
loop_
 _atom_site_type_symbol
 _atom_site_label
 _atom_site_symmetry_multiplicity
 _atom_site_fract_x
 _atom_site_fract_y
 _atom_site_fract_z
 _atom_site_occupancy
  Li  Li0  1  0.83011593  -0.00048148  0.37675898  1
  Li  Li1  1  0.49947225  0.82992899  0.62655365  1
  Li  Li2  1  0.16987534  -0.00042612  0.87675293  1
  Li  Li3  1  0.16984697  0.00049733  0.37679044  1
  Li  Li4  1  0.50053716  0.17002452  0.62656110  1
  Li  Li5  1  0.00047415  0.32995878  0.62655904  1
  Li  Li6  1  -0.00046879  0.67007723  0.62655611  1
  Li  Li7  1  0.50046164  0.82993244  0.12654879  1
  Li  Li8  1  0.49953710  0.17008868  0.12656828  1
  Li  Li9  1  0.66985575  0.50048263  0.87674550  1
  Li  Li10  1  0.00052694  0.67007237  0.12656711  1
  Li  Li11  1  0.33012329  0.49951369  0.87673239  1
  Li  Li12  1  -0.00053068  0.32991348  0.12654665  1
  Li  Li13  1  0.66989075  0.49957745  0.37678523  1
  Li  Li14  1  0.33015141  0.50042448  0.37675972  1
  Li  Li15  1  0.83013831  0.00041723  0.87672815  1
  Br  Br16  1  0.80831055  0.50039047  0.12696764  1
  Br  Br17  1  0.00039419  0.80839180  0.37660573  1
  Br  Br18  1  0.19168342  0.50033321  0.62698196  1
  Br  Br19  1  0.19170236  0.49958876  0.12698567  1
  Br  Br20  1  -0.00042573  0.19161719  0.37662267  1
  Br  Br21  1  0.49969798  0.30838014  0.37662879  1
  Br  Br22  1  0.50033493  0.69159767  0.37659326  1
  Br  Br23  1  -0.00030386  0.80840378  0.87666076  1
  Br  Br24  1  0.00033208  0.19160748  0.87662324  1
  Br  Br25  1  0.69167209  -0.00041850  0.62701546  1
  Br  Br26  1  0.49957736  0.69159756  0.87665064  1
  Br  Br27  1  0.30831596  0.00038782  0.62700255  1
  Br  Br28  1  0.50039507  0.30839154  0.87663802  1
  Br  Br29  1  0.69168285  0.00032251  0.12694559  1
  Br  Br30  1  0.30829449  -0.00029793  0.12699809  1
  Br  Br31  1  0.80832874  0.49970479  0.62702667  1
