# generated using pymatgen
data_NaI
_symmetry_space_group_name_H-M   'P 1'
_cell_length_a   13.95626967
_cell_length_b   7.07554387
_cell_length_c   7.12235840
_cell_angle_alpha   89.99695246
_cell_angle_beta   90.00119422
_cell_angle_gamma   89.99937019
_symmetry_Int_Tables_number   1
_chemical_formula_structural   NaI
_chemical_formula_sum   'Na8 I8'
_cell_volume   703.32005852
_cell_formula_units_Z   8
loop_
 _symmetry_equiv_pos_site_id
 _symmetry_equiv_pos_as_xyz
  1  'x, y, z'
loop_
 _atom_site_type_symbol
 _atom_site_label
 _atom_site_symmetry_multiplicity
 _atom_site_fract_x
 _atom_site_fract_y
 _atom_site_fract_z
 _atom_site_occupancy
  Na  Na0  1  0.26535511  0.50062561  0.10650075  1
  Na  Na1  1  0.76549909  -0.00061060  0.60648687  1
  Na  Na2  1  0.73464706  0.50063424  0.60651041  1
  Na  Na3  1  0.73449607  0.49937940  0.10649325  1
  Na  Na4  1  0.26550148  0.49938674  0.60648892  1
  Na  Na5  1  0.23464438  0.00063183  0.60650991  1
  Na  Na6  1  0.23449824  -0.00061731  0.10649299  1
  Na  Na7  1  0.76535799  0.00062269  0.10649859  1
  I  I8  1  0.39030601  0.22792485  0.35537236  1
  I  I9  1  0.89029965  0.27206048  0.85558238  1
  I  I10  1  0.60969589  0.22792655  0.85536699  1
  I  I11  1  0.60969937  0.77206036  0.35556962  1
  I  I12  1  0.39029883  0.77205981  0.85557692  1
  I  I13  1  0.10969508  0.72792771  0.85537556  1
  I  I14  1  0.10969883  0.27206184  0.35557700  1
  I  I15  1  0.89030693  0.72792578  0.35537964  1
