# generated using pymatgen
data_LiBr
_symmetry_space_group_name_H-M   'P 1'
_cell_length_a   5.45868519
_cell_length_b   5.53784468
_cell_length_c   5.51519769
_cell_angle_alpha   89.99999886
_cell_angle_beta   90.00006125
_cell_angle_gamma   89.99999725
_symmetry_Int_Tables_number   1
_chemical_formula_structural   LiBr
_chemical_formula_sum   'Li4 Br4'
_cell_volume   166.72084516
_cell_formula_units_Z   4
loop_
 _symmetry_equiv_pos_site_id
 _symmetry_equiv_pos_as_xyz
  1  'x, y, z'
loop_
 _atom_site_type_symbol
 _atom_site_label
 _atom_site_symmetry_multiplicity
 _atom_site_fract_x
 _atom_site_fract_y
 _atom_site_fract_z
 _atom_site_occupancy
  Li  Li0  1  0.00029709  0.25096087  0.71706639  1
  Li  Li1  1  0.50029696  0.74903779  0.71706373  1
  Li  Li2  1  -0.00029710  0.74904629  0.21706456  1
  Li  Li3  1  0.49970284  0.25095539  0.21706697  1
  Br  Br4  1  0.50056301  0.75007571  0.21760588  1
  Br  Br5  1  0.00056309  0.24992367  0.21760511  1
  Br  Br6  1  0.49943704  0.24992514  0.71760480  1
  Br  Br7  1  -0.00056294  0.75007514  0.71760579  1
