# generated using pymatgen
data_LiBr
_symmetry_space_group_name_H-M   'P 1'
_cell_length_a   4.18952725
_cell_length_b   7.25373276
_cell_length_c   7.91709171
_cell_angle_alpha   90.00000867
_cell_angle_beta   121.68217007
_cell_angle_gamma   89.99998828
_symmetry_Int_Tables_number   1
_chemical_formula_structural   LiBr
_chemical_formula_sum   'Li4 Br4'
_cell_volume   204.74289456
_cell_formula_units_Z   4
loop_
 _symmetry_equiv_pos_site_id
 _symmetry_equiv_pos_as_xyz
  1  'x, y, z'
loop_
 _atom_site_type_symbol
 _atom_site_label
 _atom_site_symmetry_multiplicity
 _atom_site_fract_x
 _atom_site_fract_y
 _atom_site_fract_z
 _atom_site_occupancy
  Li  Li0  1  0.33868843  0.41491090  0.28479399  1
  Li  Li1  1  0.83868417  0.91490821  0.28479384  1
  Li  Li2  1  0.33868469  0.58509164  0.78479425  1
  Li  Li3  1  0.83868780  0.08508926  0.78479385  1
  Br  Br4  1  0.71962268  0.41861777  0.66451640  1
  Br  Br5  1  0.21962288  0.91861784  0.66451507  1
  Br  Br6  1  0.71962342  0.58138205  0.16451517  1
  Br  Br7  1  0.21962237  0.08138233  0.16451639  1
