# generated using pymatgen
data_LiBr
_symmetry_space_group_name_H-M   'P 1'
_cell_length_a   5.60414621
_cell_length_b   3.92318614
_cell_length_c   7.46778403
_cell_angle_alpha   90.00000216
_cell_angle_beta   90.00000290
_cell_angle_gamma   89.99998554
_symmetry_Int_Tables_number   1
_chemical_formula_structural   LiBr
_chemical_formula_sum   'Li4 Br4'
_cell_volume   164.18751173
_cell_formula_units_Z   4
loop_
 _symmetry_equiv_pos_site_id
 _symmetry_equiv_pos_as_xyz
  1  'x, y, z'
loop_
 _atom_site_type_symbol
 _atom_site_label
 _atom_site_symmetry_multiplicity
 _atom_site_fract_x
 _atom_site_fract_y
 _atom_site_fract_z
 _atom_site_occupancy
  Li  Li0  1  0.24745361  0.00075693  0.87463883  1
  Li  Li1  1  0.75254470  0.50075764  0.62536025  1
  Li  Li2  1  0.25254551  -0.00075636  0.37463902  1
  Li  Li3  1  0.74745414  0.49924119  0.12536051  1
  Br  Br4  1  0.75073359  0.00056976  0.37518367  1
  Br  Br5  1  0.24926745  0.50057275  0.12481708  1
  Br  Br6  1  0.74926736  -0.00056977  0.87518361  1
  Br  Br7  1  0.25073364  0.49942787  0.62481705  1
