# generated using pymatgen
data_NaCl
_symmetry_space_group_name_H-M   'P 1'
_cell_length_a   3.99459446
_cell_length_b   13.24193369
_cell_length_c   3.87507129
_cell_angle_alpha   90.01135261
_cell_angle_beta   90.00013904
_cell_angle_gamma   89.99999806
_symmetry_Int_Tables_number   1
_chemical_formula_structural   NaCl
_chemical_formula_sum   'Na4 Cl4'
_cell_volume   204.97636779
_cell_formula_units_Z   4
loop_
 _symmetry_equiv_pos_site_id
 _symmetry_equiv_pos_as_xyz
  1  'x, y, z'
loop_
 _atom_site_type_symbol
 _atom_site_label
 _atom_site_symmetry_multiplicity
 _atom_site_fract_x
 _atom_site_fract_y
 _atom_site_fract_z
 _atom_site_occupancy
  Na  Na0  1  0.75163605  0.89921045  0.67911385  1
  Na  Na1  1  0.25163261  0.60078976  0.67916647  1
  Na  Na2  1  0.24836741  0.10078975  0.17918221  1
  Na  Na3  1  0.74836398  0.39921048  0.17912848  1
  Cl  Cl4  1  0.74806680  0.11261059  0.67934786  1
  Cl  Cl5  1  0.24806279  0.38738920  0.67927224  1
  Cl  Cl6  1  0.25193722  0.88738924  0.17926115  1
  Cl  Cl7  1  0.75193315  0.61261054  0.17933538  1
