# generated using pymatgen
data_LiBr
_symmetry_space_group_name_H-M   'P 1'
_cell_length_a   11.71250671
_cell_length_b   11.71250842
_cell_length_c   7.26383332
_cell_angle_alpha   89.99996682
_cell_angle_beta   90.00010105
_cell_angle_gamma   120.04238555
_symmetry_Int_Tables_number   1
_chemical_formula_structural   LiBr
_chemical_formula_sum   'Li12 Br12'
_cell_volume   862.60232146
_cell_formula_units_Z   12
loop_
 _symmetry_equiv_pos_site_id
 _symmetry_equiv_pos_as_xyz
  1  'x, y, z'
loop_
 _atom_site_type_symbol
 _atom_site_label
 _atom_site_symmetry_multiplicity
 _atom_site_fract_x
 _atom_site_fract_y
 _atom_site_fract_z
 _atom_site_occupancy
  Li  Li0  1  0.71212308  0.71202144  0.93936100  1
  Li  Li1  1  0.00004444  0.71207173  0.93939014  1
  Li  Li2  1  -0.00014382  0.71202568  0.43939765  1
  Li  Li3  1  0.28792834  -0.00004181  0.43939110  1
  Li  Li4  1  0.71207013  0.00004220  0.43939019  1
  Li  Li5  1  0.71202245  0.71212129  0.43936165  1
  Li  Li6  1  0.00014292  0.28797357  0.43939873  1
  Li  Li7  1  0.28797642  0.28787854  0.43936207  1
  Li  Li8  1  0.28797540  0.00014590  0.93939916  1
  Li  Li9  1  0.28787849  0.28798028  0.93936285  1
  Li  Li10  1  -0.00004413  0.28792672  0.93939015  1
  Li  Li11  1  0.71202717  -0.00014601  0.93939714  1
  Br  Br12  1  0.81759616  0.63331528  0.18876519  1
  Br  Br13  1  0.18435715  0.81767390  0.18876060  1
  Br  Br14  1  0.81557531  0.63331515  0.68877635  1
  Br  Br15  1  0.18232878  0.81564557  0.68876004  1
  Br  Br16  1  0.81767070  0.18435423  0.68876050  1
  Br  Br17  1  0.63331631  0.81759381  0.68876603  1
  Br  Br18  1  0.18442408  0.36668473  0.68877621  1
  Br  Br19  1  0.36668378  0.18240653  0.68876673  1
  Br  Br20  1  0.36668412  0.18442733  0.18877693  1
  Br  Br21  1  0.18240357  0.36668450  0.18876612  1
  Br  Br22  1  0.81564297  0.18232647  0.18876010  1
  Br  Br23  1  0.63331620  0.81557299  0.18877606  1
