# generated using pymatgen
data_LiBr
_symmetry_space_group_name_H-M   'P 1'
_cell_length_a   14.16267983
_cell_length_b   14.94091794
_cell_length_c   4.01964719
_cell_angle_alpha   90.00056048
_cell_angle_beta   89.99955478
_cell_angle_gamma   90.03281212
_symmetry_Int_Tables_number   1
_chemical_formula_structural   LiBr
_chemical_formula_sum   'Li16 Br16'
_cell_volume   850.57102165
_cell_formula_units_Z   16
loop_
 _symmetry_equiv_pos_site_id
 _symmetry_equiv_pos_as_xyz
  1  'x, y, z'
loop_
 _atom_site_type_symbol
 _atom_site_label
 _atom_site_symmetry_multiplicity
 _atom_site_fract_x
 _atom_site_fract_y
 _atom_site_fract_z
 _atom_site_occupancy
  Li  Li0  1  0.83118543  -0.04640801  0.72484867  1
  Li  Li1  1  0.16881375  0.04640930  0.72486882  1
  Li  Li2  1  0.41879812  0.20380160  0.97254705  1
  Li  Li3  1  0.66881421  0.04640808  0.22486125  1
  Li  Li4  1  0.91879867  0.20380149  0.47254554  1
  Li  Li5  1  0.08120178  0.29619847  0.97253746  1
  Li  Li6  1  0.33118558  -0.04640872  0.22485642  1
  Li  Li7  1  0.91879827  0.70380177  0.97254543  1
  Li  Li8  1  0.08120261  0.79619787  0.47253691  1
  Li  Li9  1  0.33118441  0.45359203  0.72485219  1
  Li  Li10  1  0.66881337  0.54640992  0.72486624  1
  Li  Li11  1  0.41879807  0.70380135  0.47254181  1
  Li  Li12  1  0.58120249  0.29619741  0.47253721  1
  Li  Li13  1  0.58120194  0.79619880  0.97253201  1
  Li  Li14  1  0.83118530  0.45359138  0.22485585  1
  Li  Li15  1  0.16881448  0.54640926  0.22486310  1
  Br  Br16  1  0.59998507  0.69109519  0.48453825  1
  Br  Br17  1  0.40001547  0.30890349  0.48455087  1
  Br  Br18  1  0.65013293  0.94108723  0.73716104  1
  Br  Br19  1  0.90001587  0.30890359  0.98455362  1
  Br  Br20  1  0.15013287  0.94108783  0.23716891  1
  Br  Br21  1  0.84986635  0.55891275  0.73716053  1
  Br  Br22  1  0.09998493  0.69109551  0.98454115  1
  Br  Br23  1  0.15013307  0.44108807  0.73716454  1
  Br  Br24  1  0.84986694  0.05891283  0.23715366  1
  Br  Br25  1  0.09998462  0.19109501  0.48454357  1
  Br  Br26  1  0.90001549  0.80890435  0.48455277  1
  Br  Br27  1  0.65013218  0.44108839  0.23716837  1
  Br  Br28  1  0.34986677  0.55891207  0.23715795  1
  Br  Br29  1  0.34986703  0.05891231  0.73716321  1
  Br  Br30  1  0.59998553  0.19109538  0.98454169  1
  Br  Br31  1  0.40001640  0.80890398  0.98454900  1
