# generated using pymatgen
data_LiBr
_symmetry_space_group_name_H-M   'P 1'
_cell_length_a   9.29873440
_cell_length_b   7.33444895
_cell_length_c   7.39817446
_cell_angle_alpha   89.99997857
_cell_angle_beta   67.47157185
_cell_angle_gamma   90.00370834
_symmetry_Int_Tables_number   1
_chemical_formula_structural   LiBr
_chemical_formula_sum   'Li8 Br8'
_cell_volume   466.06010529
_cell_formula_units_Z   8
loop_
 _symmetry_equiv_pos_site_id
 _symmetry_equiv_pos_as_xyz
  1  'x, y, z'
loop_
 _atom_site_type_symbol
 _atom_site_label
 _atom_site_symmetry_multiplicity
 _atom_site_fract_x
 _atom_site_fract_y
 _atom_site_fract_z
 _atom_site_occupancy
  Li  Li0  1  0.74994736  0.74937001  0.74967487  1
  Li  Li1  1  0.24994950  0.75062944  0.24967285  1
  Li  Li2  1  0.25004730  0.25062948  0.25032704  1
  Li  Li3  1  0.25003935  0.74937013  0.75033127  1
  Li  Li4  1  0.74995004  0.25063032  0.24967462  1
  Li  Li5  1  0.75005132  0.75063064  0.25032548  1
  Li  Li6  1  0.75005188  0.24937044  0.75032553  1
  Li  Li7  1  0.24995540  0.24937008  0.74967189  1
  Br  Br8  1  0.75149799  0.50024958  -0.00022292  1
  Br  Br9  1  0.25150036  -0.00024885  0.49977618  1
  Br  Br10  1  0.24850389  0.49975045  0.00022151  1
  Br  Br11  1  0.24850088  0.50024766  0.50022323  1
  Br  Br12  1  0.75150196  0.49975136  0.49977533  1
  Br  Br13  1  0.74850611  -0.00024868  0.00022092  1
  Br  Br14  1  0.74850226  0.00024965  0.50022323  1
  Br  Br15  1  0.25149439  0.00024830  -0.00022102  1
