# generated using pymatgen
data_LiBr
_symmetry_space_group_name_H-M   'P 1'
_cell_length_a   13.31895980
_cell_length_b   15.37974114
_cell_length_c   4.02773333
_cell_angle_alpha   90.00018609
_cell_angle_beta   90.00002313
_cell_angle_gamma   89.99794194
_symmetry_Int_Tables_number   1
_chemical_formula_structural   LiBr
_chemical_formula_sum   'Li16 Br16'
_cell_volume   825.04956944
_cell_formula_units_Z   16
loop_
 _symmetry_equiv_pos_site_id
 _symmetry_equiv_pos_as_xyz
  1  'x, y, z'
loop_
 _atom_site_type_symbol
 _atom_site_label
 _atom_site_symmetry_multiplicity
 _atom_site_fract_x
 _atom_site_fract_y
 _atom_site_fract_z
 _atom_site_occupancy
  Li  Li0  1  0.48169430  0.16407595  0.89960255  1
  Li  Li1  1  0.51830497  0.83592486  0.89959897  1
  Li  Li2  1  0.76803195  0.41401699  0.14969397  1
  Li  Li3  1  0.01830479  0.83592477  0.39960016  1
  Li  Li4  1  0.26803164  0.41401690  0.64969203  1
  Li  Li5  1  0.73196783  0.08598279  0.14969833  1
  Li  Li6  1  0.98169440  0.16407482  0.39960150  1
  Li  Li7  1  0.26803134  0.91401745  0.14969008  1
  Li  Li8  1  0.73196857  0.58598314  0.64969571  1
  Li  Li9  1  0.98169492  0.66407492  0.89960081  1
  Li  Li10  1  0.01830531  0.33592426  0.89960128  1
  Li  Li11  1  0.76803156  0.91401671  0.64969590  1
  Li  Li12  1  0.23196904  0.08598238  0.64969006  1
  Li  Li13  1  0.23196917  0.58598285  0.14969273  1
  Li  Li14  1  0.48169471  0.66407525  0.39959925  1
  Li  Li15  1  0.51830548  0.33592462  0.39960272  1
  Br  Br16  1  0.59758267  0.68362421  0.89307452  1
  Br  Br17  1  0.40241742  0.31637670  0.89307964  1
  Br  Br18  1  0.65236583  0.93369677  0.14322003  1
  Br  Br19  1  0.90241737  0.31637625  0.39307841  1
  Br  Br20  1  0.15236585  0.93369701  0.64321620  1
  Br  Br21  1  0.84763409  0.56630340  0.14322206  1
  Br  Br22  1  0.09758296  0.68362386  0.39307551  1
  Br  Br23  1  0.15236622  0.43369685  0.14321750  1
  Br  Br24  1  0.84763347  0.06630320  0.64322380  1
  Br  Br25  1  0.09758277  0.18362320  0.89307629  1
  Br  Br26  1  0.90241736  0.81637612  0.89307825  1
  Br  Br27  1  0.65236632  0.43369709  0.64321880  1
  Br  Br28  1  0.34763449  0.56630311  0.64322062  1
  Br  Br29  1  0.34763425  0.06630329  0.14321991  1
  Br  Br30  1  0.59758215  0.18362396  0.39307805  1
  Br  Br31  1  0.40241678  0.81637634  0.39307542  1
