# generated using pymatgen
data_NaI
_symmetry_space_group_name_H-M   'P 1'
_cell_length_a   7.75372160
_cell_length_b   4.48721223
_cell_length_c   8.25830096
_cell_angle_alpha   90.01362192
_cell_angle_beta   90.18552371
_cell_angle_gamma   90.00004823
_symmetry_Int_Tables_number   1
_chemical_formula_structural   NaI
_chemical_formula_sum   'Na4 I4'
_cell_volume   287.32620144
_cell_formula_units_Z   4
loop_
 _symmetry_equiv_pos_site_id
 _symmetry_equiv_pos_as_xyz
  1  'x, y, z'
loop_
 _atom_site_type_symbol
 _atom_site_label
 _atom_site_symmetry_multiplicity
 _atom_site_fract_x
 _atom_site_fract_y
 _atom_site_fract_z
 _atom_site_occupancy
  Na  Na0  1  0.83311422  0.50108755  0.23311250  1
  Na  Na1  1  0.33312676  -0.00105146  0.23313288  1
  Na  Na2  1  0.16625125  0.49868968  0.73320635  1
  Na  Na3  1  0.66626832  0.00135928  0.73317937  1
  I  I4  1  0.00383161  -0.00166327  0.98257528  1
  I  I5  1  0.50392961  0.50164792  0.98258476  1
  I  I6  1  0.99669089  0.00174588  0.48239547  1
  I  I7  1  0.49678736  0.49818441  0.48236652  1
