# generated using pymatgen
data_NaI
_symmetry_space_group_name_H-M   'P 1'
_cell_length_a   12.11915794
_cell_length_b   11.39922736
_cell_length_c   11.54772441
_cell_angle_alpha   89.99969790
_cell_angle_beta   89.99784451
_cell_angle_gamma   90.00018791
_symmetry_Int_Tables_number   1
_chemical_formula_structural   NaI
_chemical_formula_sum   'Na16 I16'
_cell_volume   1595.30700378
_cell_formula_units_Z   16
loop_
 _symmetry_equiv_pos_site_id
 _symmetry_equiv_pos_as_xyz
  1  'x, y, z'
loop_
 _atom_site_type_symbol
 _atom_site_label
 _atom_site_symmetry_multiplicity
 _atom_site_fract_x
 _atom_site_fract_y
 _atom_site_fract_z
 _atom_site_occupancy
  Na  Na0  1  0.08171074  0.74975102  0.53891795  1
  Na  Na1  1  0.91829071  0.25024664  0.53892793  1
  Na  Na2  1  0.16828958  -0.00024612  0.78892455  1
  Na  Na3  1  0.41829061  0.25024665  0.03892789  1
  Na  Na4  1  0.66828959  -0.00024621  0.28892450  1
  Na  Na5  1  0.33170948  0.50024843  0.78892082  1
  Na  Na6  1  0.58171063  0.74975102  0.03891792  1
  Na  Na7  1  0.66828953  0.49975386  0.78892456  1
  Na  Na8  1  0.33170948  0.00024857  0.28892077  1
  Na  Na9  1  0.58171051  0.24975103  0.53891800  1
  Na  Na10  1  0.41829076  0.75024665  0.53892793  1
  Na  Na11  1  0.16828949  0.49975378  0.28892445  1
  Na  Na12  1  0.83170941  0.50024856  0.28892080  1
  Na  Na13  1  0.83170948  0.00024841  0.78892080  1
  Na  Na14  1  0.08171067  0.24975099  0.03891795  1
  Na  Na15  1  0.91829063  0.75024667  0.03892789  1
  I  I16  1  0.00019027  0.79146416  0.78875113  1
  I  I17  1  -0.00019142  0.20853944  0.78875166  1
  I  I18  1  0.24980877  0.04146062  0.03875160  1
  I  I19  1  0.49980856  0.20853950  0.28875174  1
  I  I20  1  0.74980889  0.04146047  0.53875167  1
  I  I21  1  0.25019206  0.45853573  0.03875197  1
  I  I22  1  0.50019014  0.79146413  0.28875119  1
  I  I23  1  0.74980883  0.54146063  0.03875162  1
  I  I24  1  0.25019208  0.95853592  0.53875203  1
  I  I25  1  0.50019016  0.29146427  0.78875119  1
  I  I26  1  0.49980855  0.70853937  0.78875174  1
  I  I27  1  0.24980903  0.54146047  0.53875164  1
  I  I28  1  0.75019196  0.45853591  0.53875203  1
  I  I29  1  0.75019211  0.95853575  0.03875198  1
  I  I30  1  0.00019013  0.29146419  0.28875116  1
  I  I31  1  -0.00019142  0.70853947  0.28875182  1
