# generated using pymatgen
data_LiBr
_symmetry_space_group_name_H-M   'P 1'
_cell_length_a   4.18785718
_cell_length_b   7.26355181
_cell_length_c   6.72488494
_cell_angle_alpha   90.00010209
_cell_angle_beta   90.06790323
_cell_angle_gamma   90.00052868
_symmetry_Int_Tables_number   1
_chemical_formula_structural   LiBr
_chemical_formula_sum   'Li4 Br4'
_cell_volume   204.56223208
_cell_formula_units_Z   4
loop_
 _symmetry_equiv_pos_site_id
 _symmetry_equiv_pos_as_xyz
  1  'x, y, z'
loop_
 _atom_site_type_symbol
 _atom_site_label
 _atom_site_symmetry_multiplicity
 _atom_site_fract_x
 _atom_site_fract_y
 _atom_site_fract_z
 _atom_site_occupancy
  Li  Li0  1  0.38213834  0.33325993  0.39939660  1
  Li  Li1  1  0.88214847  0.83326027  0.39939648  1
  Li  Li2  1  0.38216588  0.66673994  0.89939883  1
  Li  Li3  1  0.88217317  0.16673997  0.89939632  1
  Br  Br4  1  0.38153149  0.33388965  0.77992454  1
  Br  Br5  1  0.88152713  0.83388927  0.77992422  1
  Br  Br6  1  0.38150910  0.66611045  0.27992553  1
  Br  Br7  1  0.88150202  0.16611053  0.27992416  1
