# generated using pymatgen
data_LiBr
_symmetry_space_group_name_H-M   'P 1'
_cell_length_a   6.55020454
_cell_length_b   6.55034882
_cell_length_c   9.70632739
_cell_angle_alpha   89.99999104
_cell_angle_beta   90.00000825
_cell_angle_gamma   120.01677863
_symmetry_Int_Tables_number   1
_chemical_formula_structural   LiBr
_chemical_formula_sum   'Li6 Br6'
_cell_volume   360.60471815
_cell_formula_units_Z   6
loop_
 _symmetry_equiv_pos_site_id
 _symmetry_equiv_pos_as_xyz
  1  'x, y, z'
loop_
 _atom_site_type_symbol
 _atom_site_label
 _atom_site_symmetry_multiplicity
 _atom_site_fract_x
 _atom_site_fract_y
 _atom_site_fract_z
 _atom_site_occupancy
  Li  Li0  1  0.53306546  0.53235442  0.08287554  1
  Li  Li1  1  0.00071868  0.53303753  0.24952915  1
  Li  Li2  1  -0.00071868  0.46696234  0.74952910  1
  Li  Li3  1  0.53233770  -0.00069845  0.91621862  1
  Li  Li4  1  0.46766168  0.00069834  0.41621855  1
  Li  Li5  1  0.46693513  0.46764582  0.58287566  1
  Br  Br6  1  0.42126111  0.84121916  0.16636241  1
  Br  Br7  1  0.57996326  0.42116859  0.33301025  1
  Br  Br8  1  0.42003691  0.57883168  0.83301038  1
  Br  Br9  1  0.84123379  0.42015701  -0.00033815  1
  Br  Br10  1  0.15876628  0.57984287  0.49966186  1
  Br  Br11  1  0.57873867  0.15878069  0.66636238  1
