# generated using pymatgen
data_LiBr
_symmetry_space_group_name_H-M   'P 1'
_cell_length_a   11.54120130
_cell_length_b   11.54119945
_cell_length_c   7.92382810
_cell_angle_alpha   90.00303225
_cell_angle_beta   89.99701895
_cell_angle_gamma   120.00305311
_symmetry_Int_Tables_number   1
_chemical_formula_structural   LiBr
_chemical_formula_sum   'Li18 Br18'
_cell_volume   914.01700692
_cell_formula_units_Z   18
loop_
 _symmetry_equiv_pos_site_id
 _symmetry_equiv_pos_as_xyz
  1  'x, y, z'
loop_
 _atom_site_type_symbol
 _atom_site_label
 _atom_site_symmetry_multiplicity
 _atom_site_fract_x
 _atom_site_fract_y
 _atom_site_fract_z
 _atom_site_occupancy
  Li  Li0  1  0.53458368  0.07368145  0.41140673  1
  Li  Li1  1  0.53459542  0.46090397  0.91140207  1
  Li  Li2  1  0.25964977  0.13210663  0.57793783  1
  Li  Li3  1  0.87243820  0.74034747  0.57793132  1
  Li  Li4  1  0.59300237  0.79427091  0.74456829  1
  Li  Li5  1  0.92632202  0.46091296  0.41140185  1
  Li  Li6  1  0.87243864  0.13210108  0.07793138  1
  Li  Li7  1  0.25965274  0.12756288  0.07793251  1
  Li  Li8  1  0.53909592  0.46540489  0.41140157  1
  Li  Li9  1  0.53908586  0.07367569  0.91140487  1
  Li  Li10  1  0.86789351  0.74035045  0.07793584  1
  Li  Li11  1  0.86789899  0.12756261  0.57793233  1
  Li  Li12  1  0.20572643  0.79873393  0.74456812  1
  Li  Li13  1  0.20572917  0.40699870  0.24456998  1
  Li  Li14  1  0.92631785  0.46541581  0.91140641  1
  Li  Li15  1  0.59300297  0.79873374  0.24457150  1
  Li  Li16  1  0.20126676  0.40699831  0.74457100  1
  Li  Li17  1  0.20126502  0.79427374  0.24456792  1
  Br  Br18  1  0.78563666  0.57475920  0.83874545  1
  Br  Br19  1  0.78563111  0.21087292  0.33876262  1
  Br  Br20  1  0.75858160  0.88105544  0.00536072  1
  Br  Br21  1  0.12247327  0.24141789  0.00536215  1
  Br  Br22  1  0.09189170  0.54421984  0.17211561  1
  Br  Br23  1  0.42524427  0.21086934  0.83874564  1
  Br  Br24  1  0.12247494  0.88105487  0.50538246  1
  Br  Br25  1  0.75858394  0.87752793  0.50536200  1
  Br  Br26  1  0.78912592  0.21436802  0.83876359  1
  Br  Br27  1  0.78913014  0.57475616  0.33874409  1
  Br  Br28  1  0.11894468  0.24141845  0.50536132  1
  Br  Br29  1  0.11894520  0.87752607  0.00538208  1
  Br  Br30  1  0.45578811  0.54766141  0.17213291  1
  Br  Br31  1  0.45578052  -0.09189232  0.67211571  1
  Br  Br32  1  0.42524067  0.21436316  0.33874671  1
  Br  Br33  1  0.09188894  0.54766515  0.67211676  1
  Br  Br34  1  0.45233382  -0.09189071  0.17211754  1
  Br  Br35  1  0.45233920  0.54421191  0.67213285  1
