# generated using pymatgen
data_LiI
_symmetry_space_group_name_H-M   'P 1'
_cell_length_a   7.33704416
_cell_length_b   4.23519845
_cell_length_c   6.97850520
_cell_angle_alpha   89.99982441
_cell_angle_beta   90.00028887
_cell_angle_gamma   90.00026631
_symmetry_Int_Tables_number   1
_chemical_formula_structural   LiI
_chemical_formula_sum   'Li4 I4'
_cell_volume   216.84894042
_cell_formula_units_Z   4
loop_
 _symmetry_equiv_pos_site_id
 _symmetry_equiv_pos_as_xyz
  1  'x, y, z'
loop_
 _atom_site_type_symbol
 _atom_site_label
 _atom_site_symmetry_multiplicity
 _atom_site_fract_x
 _atom_site_fract_y
 _atom_site_fract_z
 _atom_site_occupancy
  Li  Li0  1  0.75075202  0.25197307  0.11899572  1
  Li  Li1  1  0.25067546  0.74805495  0.11899211  1
  Li  Li2  1  0.24932493  0.74806185  0.61899505  1
  Li  Li3  1  0.74925328  0.25196633  0.61899349  1
  I  I4  1  0.41615613  0.24888321  0.37049181  1
  I  I5  1  0.91615636  0.75117227  0.37050594  1
  I  I6  1  0.58384174  0.75114931  0.87050814  1
  I  I7  1  0.08384008  0.24886058  0.87048934  1
