# generated using pymatgen
data_LiI
_symmetry_space_group_name_H-M   'P 1'
_cell_length_a   7.00484162
_cell_length_b   7.27363021
_cell_length_c   4.24514412
_cell_angle_alpha   89.99987183
_cell_angle_beta   89.99967056
_cell_angle_gamma   90.00046361
_symmetry_Int_Tables_number   1
_chemical_formula_structural   LiI
_chemical_formula_sum   'Li4 I4'
_cell_volume   216.29275717
_cell_formula_units_Z   4
loop_
 _symmetry_equiv_pos_site_id
 _symmetry_equiv_pos_as_xyz
  1  'x, y, z'
loop_
 _atom_site_type_symbol
 _atom_site_label
 _atom_site_symmetry_multiplicity
 _atom_site_fract_x
 _atom_site_fract_y
 _atom_site_fract_z
 _atom_site_occupancy
  Li  Li0  1  0.50239180  0.75013617  0.49721782  1
  Li  Li1  1  0.00239200  0.74986361  0.49721751  1
  Li  Li2  1  0.49760807  0.24986310  -0.00278700  1
  Li  Li3  1  0.99760786  0.25013647  -0.00278389  1
  I  I4  1  0.25034982  0.41667903  0.49782737  1
  I  I5  1  0.75035078  0.08332128  0.49782730  1
  I  I6  1  0.74964985  0.58332153  -0.00217384  1
  I  I7  1  0.24964983  0.91667881  -0.00217370  1
