# generated using pymatgen
data_KI
_symmetry_space_group_name_H-M   'P 1'
_cell_length_a   6.07579062
_cell_length_b   10.55115997
_cell_length_c   7.12076245
_cell_angle_alpha   90.00000161
_cell_angle_beta   90.00000189
_cell_angle_gamma   89.99999662
_symmetry_Int_Tables_number   1
_chemical_formula_structural   KI
_chemical_formula_sum   'K4 I4'
_cell_volume   456.48814605
_cell_formula_units_Z   4
loop_
 _symmetry_equiv_pos_site_id
 _symmetry_equiv_pos_as_xyz
  1  'x, y, z'
loop_
 _atom_site_type_symbol
 _atom_site_label
 _atom_site_symmetry_multiplicity
 _atom_site_fract_x
 _atom_site_fract_y
 _atom_site_fract_z
 _atom_site_occupancy
  K  K0  1  0.27850306  0.66615490  0.25171235  1
  K  K1  1  0.72149695  0.16615491  0.24828781  1
  K  K2  1  0.22149696  0.33384510  0.75171145  1
  K  K3  1  0.77850304  0.83384510  0.74828838  1
  I  I4  1  0.77869184  0.83446678  0.24890599  1
  I  I5  1  0.22130814  0.33446678  0.25109396  1
  I  I6  1  0.72130818  0.16553322  0.74890529  1
  I  I7  1  0.27869183  0.66553321  0.75109476  1
