# generated using pymatgen
data_NaBr
_symmetry_space_group_name_H-M   'P 1'
_cell_length_a   4.20830370
_cell_length_b   7.22883847
_cell_length_c   7.23238684
_cell_angle_alpha   89.99996237
_cell_angle_beta   89.82248360
_cell_angle_gamma   89.99999260
_symmetry_Int_Tables_number   1
_chemical_formula_structural   NaBr
_chemical_formula_sum   'Na4 Br4'
_cell_volume   220.01645177
_cell_formula_units_Z   4
loop_
 _symmetry_equiv_pos_site_id
 _symmetry_equiv_pos_as_xyz
  1  'x, y, z'
loop_
 _atom_site_type_symbol
 _atom_site_label
 _atom_site_symmetry_multiplicity
 _atom_site_fract_x
 _atom_site_fract_y
 _atom_site_fract_z
 _atom_site_occupancy
  Na  Na0  1  0.63983749  0.00032421  0.26338739  1
  Na  Na1  1  0.13983708  0.50032429  0.26338740  1
  Na  Na2  1  0.63983611  -0.00032408  0.76338315  1
  Na  Na3  1  0.13983569  0.49967588  0.76338312  1
  Br  Br4  1  0.13889577  0.83452716  0.51300891  1
  Br  Br5  1  0.63889546  0.33452717  0.51300891  1
  Br  Br6  1  0.13889567  0.16547269  0.01300710  1
  Br  Br7  1  0.63889537  0.66547268  0.01300711  1
