# generated using pymatgen
data_LiCl
_symmetry_space_group_name_H-M   'P 1'
_cell_length_a   3.64547315
_cell_length_b   3.64605193
_cell_length_c   8.78617611
_cell_angle_alpha   89.99881989
_cell_angle_beta   89.98324933
_cell_angle_gamma   120.01317505
_symmetry_Int_Tables_number   1
_chemical_formula_structural   LiCl
_chemical_formula_sum   'Li3 Cl3'
_cell_volume   101.12291732
_cell_formula_units_Z   3
loop_
 _symmetry_equiv_pos_site_id
 _symmetry_equiv_pos_as_xyz
  1  'x, y, z'
loop_
 _atom_site_type_symbol
 _atom_site_label
 _atom_site_symmetry_multiplicity
 _atom_site_fract_x
 _atom_site_fract_y
 _atom_site_fract_z
 _atom_site_occupancy
  Li  Li0  1  0.33161883  0.33235511  0.40369804  1
  Li  Li1  1  0.66758622  0.99919827  0.07070724  1
  Li  Li2  1  0.00085154  0.66854282  0.73689428  1
  Cl  Cl3  1  0.00082062  0.66635555  0.23675096  1
  Cl  Cl4  1  0.33361594  0.33445656  0.90345186  1
  Cl  Cl5  1  0.66550684  -0.00090831  0.57003348  1
