# generated using pymatgen
data_LiI
_symmetry_space_group_name_H-M   'P 1'
_cell_length_a   8.49672895
_cell_length_b   8.49668701
_cell_length_c   14.16353572
_cell_angle_alpha   89.99969211
_cell_angle_beta   89.99952274
_cell_angle_gamma   90.00008686
_symmetry_Int_Tables_number   1
_chemical_formula_structural   LiI
_chemical_formula_sum   'Li16 I16'
_cell_volume   1022.52295696
_cell_formula_units_Z   16
loop_
 _symmetry_equiv_pos_site_id
 _symmetry_equiv_pos_as_xyz
  1  'x, y, z'
loop_
 _atom_site_type_symbol
 _atom_site_label
 _atom_site_symmetry_multiplicity
 _atom_site_fract_x
 _atom_site_fract_y
 _atom_site_fract_z
 _atom_site_occupancy
  Li  Li0  1  0.25941415  0.09003759  0.15156806  1
  Li  Li1  1  0.59004034  0.25941467  0.40156780  1
  Li  Li2  1  0.74058637  0.09003769  0.65156916  1
  Li  Li3  1  0.74058773  0.90996217  0.15156885  1
  Li  Li4  1  0.40995895  0.74058778  0.40156931  1
  Li  Li5  1  0.90995905  0.75941399  0.40156853  1
  Li  Li6  1  0.09004051  0.24058629  0.40156830  1
  Li  Li7  1  0.40996018  0.25941439  0.90156904  1
  Li  Li8  1  0.59003973  0.74058515  0.90156847  1
  Li  Li9  1  0.24058589  0.40996200  0.65156847  1
  Li  Li10  1  0.90995971  0.24058800  0.90156884  1
  Li  Li11  1  0.75941526  0.59003791  0.65156747  1
  Li  Li12  1  0.09004110  0.75941339  0.90156792  1
  Li  Li13  1  0.24058742  0.59003749  0.15156902  1
  Li  Li14  1  0.75941406  0.40996286  0.15156811  1
  Li  Li15  1  0.25941143  0.90996133  0.65156911  1
  I  I16  1  0.83022802  0.84292240  0.77882080  1
  I  I17  1  0.34292427  0.83022438  0.02882127  1
  I  I18  1  0.16977394  0.84292270  0.27882174  1
  I  I19  1  0.16977424  0.15707610  0.77882301  1
  I  I20  1  0.65707239  0.16977616  0.02882384  1
  I  I21  1  0.15707270  0.33022500  0.02882304  1
  I  I22  1  0.84292413  0.66977643  0.02882187  1
  I  I23  1  0.65707355  0.83022539  0.52882240  1
  I  I24  1  0.34292448  0.16977562  0.52882229  1
  I  I25  1  0.66977374  0.65707519  0.27882287  1
  I  I26  1  0.15707261  0.66977592  0.52882288  1
  I  I27  1  0.33022827  0.34292212  0.27882093  1
  I  I28  1  0.84292514  0.33022431  0.52882218  1
  I  I29  1  0.66977444  0.34292379  0.77882271  1
  I  I30  1  0.33022792  0.65707557  0.77882125  1
  I  I31  1  0.83022825  0.15707620  0.27882181  1
