# generated using pymatgen
data_NaI
_symmetry_space_group_name_H-M   'P 1'
_cell_length_a   13.06566379
_cell_length_b   13.05840788
_cell_length_c   6.53275743
_cell_angle_alpha   90.00014317
_cell_angle_beta   90.00071133
_cell_angle_gamma   90.00064429
_symmetry_Int_Tables_number   1
_chemical_formula_structural   NaI
_chemical_formula_sum   'Na16 I16'
_cell_volume   1114.59795184
_cell_formula_units_Z   16
loop_
 _symmetry_equiv_pos_site_id
 _symmetry_equiv_pos_as_xyz
  1  'x, y, z'
loop_
 _atom_site_type_symbol
 _atom_site_label
 _atom_site_symmetry_multiplicity
 _atom_site_fract_x
 _atom_site_fract_y
 _atom_site_fract_z
 _atom_site_occupancy
  Na  Na0  1  0.12498831  0.12491675  0.25037188  1
  Na  Na1  1  0.87501314  0.87508398  0.25034143  1
  Na  Na2  1  0.37501285  0.12491694  0.75038138  1
  Na  Na3  1  0.37501408  0.37508343  0.25034113  1
  Na  Na4  1  0.87501362  0.62491756  0.75038159  1
  Na  Na5  1  0.37501208  0.62491549  0.74966844  1
  Na  Na6  1  0.62498918  0.62491610  0.25037195  1
  Na  Na7  1  0.62498721  0.37508272  0.74961840  1
  Na  Na8  1  0.12498895  0.37508494  0.75033143  1
  Na  Na9  1  0.87501160  0.37508350  0.24962806  1
  Na  Na10  1  0.12498691  0.62491639  0.24965885  1
  Na  Na11  1  0.12498626  0.87508294  0.74961856  1
  Na  Na12  1  0.87501105  0.12491549  0.74966849  1
  Na  Na13  1  0.62498807  0.87508416  0.75033154  1
  Na  Na14  1  0.37501077  0.87508351  0.24962810  1
  Na  Na15  1  0.62498604  0.12491616  0.24965872  1
  I  I16  1  0.37510571  0.37502538  0.74998498  1
  I  I17  1  0.62489551  0.62497435  0.74997664  1
  I  I18  1  0.12489585  0.37502550  0.24997779  1
  I  I19  1  0.12489514  0.12497456  0.74997662  1
  I  I20  1  0.62489554  0.87502535  0.24997796  1
  I  I21  1  0.12489393  0.87502582  0.25001635  1
  I  I22  1  0.87510532  0.87502552  0.74998522  1
  I  I23  1  0.87510415  0.12497469  0.25002214  1
  I  I24  1  0.37510562  0.12497428  0.24998359  1
  I  I25  1  0.62489436  0.12497433  0.75001486  1
  I  I26  1  0.37510442  0.87502542  0.75002342  1
  I  I27  1  0.37510455  0.62497447  0.25002209  1
  I  I28  1  0.62489434  0.37502545  0.25001619  1
  I  I29  1  0.87510594  0.62497432  0.24998385  1
  I  I30  1  0.12489470  0.62497478  0.75001500  1
  I  I31  1  0.87510480  0.37502574  0.75002335  1
