# generated using pymatgen
data_LiBr
_symmetry_space_group_name_H-M   'P 1'
_cell_length_a   10.27209068
_cell_length_b   10.27209979
_cell_length_c   12.54369198
_cell_angle_alpha   90.00037595
_cell_angle_beta   89.99965330
_cell_angle_gamma   120.00865096
_symmetry_Int_Tables_number   1
_chemical_formula_structural   LiBr
_chemical_formula_sum   'Li18 Br18'
_cell_volume   1146.13617972
_cell_formula_units_Z   18
loop_
 _symmetry_equiv_pos_site_id
 _symmetry_equiv_pos_as_xyz
  1  'x, y, z'
loop_
 _atom_site_type_symbol
 _atom_site_label
 _atom_site_symmetry_multiplicity
 _atom_site_fract_x
 _atom_site_fract_y
 _atom_site_fract_z
 _atom_site_occupancy
  Li  Li0  1  0.91662703  0.33282182  0.76420561  1
  Li  Li1  1  0.91659779  0.58379701  0.26419747  1
  Li  Li2  1  0.00051274  0.75003781  0.93087130  1
  Li  Li3  1  0.74954360  -0.00051485  0.93085667  1
  Li  Li4  1  0.33384683  0.91712410  0.09752645  1
  Li  Li5  1  0.66717980  0.58378939  0.76419199  1
  Li  Li6  1  0.74953538  0.75006729  0.43086516  1
  Li  Li7  1  0.00051522  0.25045657  0.43085758  1
  Li  Li8  1  0.41620293  0.08340086  0.76419743  1
  Li  Li9  1  0.41621128  0.33281978  0.26419281  1
  Li  Li10  1  0.24996138  -0.00051298  0.43087288  1
  Li  Li11  1  0.24993320  0.25046526  0.93086349  1
  Li  Li12  1  0.08286983  0.41673512  0.09753088  1
  Li  Li13  1  0.08287562  0.66615314  0.59752447  1
  Li  Li14  1  0.66717770  0.08337396  0.26420697  1
  Li  Li15  1  0.33384436  0.41670482  0.59753738  1
  Li  Li16  1  0.58329554  0.66615456  0.09753730  1
  Li  Li17  1  0.58326419  0.91712872  0.59753098  1
  Br  Br18  1  0.08363906  0.66681323  0.09746760  1
  Br  Br19  1  0.08364371  0.41684807  0.59748361  1
  Br  Br20  1  0.66651890  0.58302494  0.26413468  1
  Br  Br21  1  0.91652263  0.33347621  0.26416838  1
  Br  Br22  1  -0.00013910  0.75014746  0.43083361  1
  Br  Br23  1  0.33319206  0.41681240  0.09750169  1
  Br  Br24  1  0.91648273  0.58302200  0.76415267  1
  Br  Br25  1  0.66652562  0.08347699  0.76416892  1
  Br  Br26  1  0.58315228  0.91635682  0.09748331  1
  Br  Br27  1  0.58318953  0.66680820  0.59750252  1
  Br  Br28  1  0.41697278  0.33348016  0.76413522  1
  Br  Br29  1  0.41697988  0.08351728  0.26415139  1
  Br  Br30  1  0.24981724  0.24968966  0.43081815  1
  Br  Br31  1  0.24985344  0.00014022  0.93083487  1
  Br  Br32  1  0.33318547  0.91636032  0.59746766  1
  Br  Br33  1  -0.00014623  0.24969518  0.93080167  1
  Br  Br34  1  0.75030432  0.00014601  0.43080014  1
  Br  Br35  1  0.75031122  0.75018246  0.93081880  1
