# generated using pymatgen
data_NaI
_symmetry_space_group_name_H-M   'P 1'
_cell_length_a   8.67851136
_cell_length_b   8.68281800
_cell_length_c   11.94087155
_cell_angle_alpha   89.99973182
_cell_angle_beta   90.00042335
_cell_angle_gamma   120.28983445
_symmetry_Int_Tables_number   1
_chemical_formula_structural   NaI
_chemical_formula_sum   'Na6 I6'
_cell_volume   776.95664305
_cell_formula_units_Z   6
loop_
 _symmetry_equiv_pos_site_id
 _symmetry_equiv_pos_as_xyz
  1  'x, y, z'
loop_
 _atom_site_type_symbol
 _atom_site_label
 _atom_site_symmetry_multiplicity
 _atom_site_fract_x
 _atom_site_fract_y
 _atom_site_fract_z
 _atom_site_occupancy
  Na  Na0  1  0.19185339  0.19656634  0.12303446  1
  Na  Na1  1  0.99644697  0.19167292  0.45611559  1
  Na  Na2  1  0.00355453  0.80832771  0.45610974  1
  Na  Na3  1  0.19642796  0.00562800  0.78966467  1
  Na  Na4  1  0.80357775  0.99437184  0.78966235  1
  Na  Na5  1  0.80814541  0.80343376  0.12303411  1
  I  I6  1  0.69784115  0.83579120  0.35798548  1
  I  I7  1  0.86185993  0.69798509  0.69147298  1
  I  I8  1  0.13814087  0.30201519  0.69147416  1
  I  I9  1  0.83632996  0.13701414  0.02480634  1
  I  I10  1  0.16366515  0.86298693  0.02480503  1
  I  I11  1  0.30215693  0.16420688  0.35798658  1
