# generated using pymatgen
data_NaBr
_symmetry_space_group_name_H-M   'P 1'
_cell_length_a   8.10922959
_cell_length_b   5.38579177
_cell_length_c   5.99556873
_cell_angle_alpha   90.00650880
_cell_angle_beta   89.99989943
_cell_angle_gamma   90.00060794
_symmetry_Int_Tables_number   1
_chemical_formula_structural   NaBr
_chemical_formula_sum   'Na4 Br4'
_cell_volume   261.85419601
_cell_formula_units_Z   4
loop_
 _symmetry_equiv_pos_site_id
 _symmetry_equiv_pos_as_xyz
  1  'x, y, z'
loop_
 _atom_site_type_symbol
 _atom_site_label
 _atom_site_symmetry_multiplicity
 _atom_site_fract_x
 _atom_site_fract_y
 _atom_site_fract_z
 _atom_site_occupancy
  Na  Na0  1  0.17738844  -0.00883405  0.18427522  1
  Na  Na1  1  0.67739251  0.50885020  0.18427284  1
  Na  Na2  1  0.82260803  0.00884148  0.68426066  1
  Na  Na3  1  0.32261029  0.49116072  0.68426273  1
  Br  Br4  1  0.18245743  -0.00875893  0.68379809  1
  Br  Br5  1  0.68245625  0.50875540  0.68379839  1
  Br  Br6  1  0.81754409  0.00874515  0.18380552  1
  Br  Br7  1  0.31754296  0.49124003  0.18380475  1
