# generated using pymatgen
data_LiI
_symmetry_space_group_name_H-M   'P 1'
_cell_length_a   7.37103789
_cell_length_b   7.37394864
_cell_length_c   8.62525649
_cell_angle_alpha   80.14941463
_cell_angle_beta   80.09828785
_cell_angle_gamma   117.06726184
_symmetry_Int_Tables_number   1
_chemical_formula_structural   LiI
_chemical_formula_sum   'Li6 I6'
_cell_volume   394.28672958
_cell_formula_units_Z   6
loop_
 _symmetry_equiv_pos_site_id
 _symmetry_equiv_pos_as_xyz
  1  'x, y, z'
loop_
 _atom_site_type_symbol
 _atom_site_label
 _atom_site_symmetry_multiplicity
 _atom_site_fract_x
 _atom_site_fract_y
 _atom_site_fract_z
 _atom_site_occupancy
  Li  Li0  1  0.39283652  0.39282470  0.10359370  1
  Li  Li1  1  0.60849583  0.00337476  0.29915854  1
  Li  Li2  1  0.60980362  0.00427442  0.79782248  1
  Li  Li3  1  0.00335666  0.60879579  0.80169760  1
  Li  Li4  1  0.39304614  0.39250928  0.60379268  1
  Li  Li5  1  0.00449704  0.60998337  0.30013610  1
  I  I6  1  0.63948583  0.63907892  0.28941757  1
  I  I7  1  0.35563647  -0.00231696  0.59733825  1
  I  I8  1  0.35699915  -0.00191378  0.09658415  1
  I  I9  1  -0.00203828  0.35634823  0.09914654  1
  I  I10  1  0.63948449  0.63959718  0.78930969  1
  I  I11  1  -0.00160346  0.35744410  0.59829675  1
