# generated using pymatgen
data_LiBr
_symmetry_space_group_name_H-M   'P 1'
_cell_length_a   11.40567211
_cell_length_b   10.10826478
_cell_length_c   8.61315043
_cell_angle_alpha   90.00002254
_cell_angle_beta   89.99996164
_cell_angle_gamma   90.02319638
_symmetry_Int_Tables_number   1
_chemical_formula_structural   LiBr
_chemical_formula_sum   'Li16 Br16'
_cell_volume   993.02341298
_cell_formula_units_Z   16
loop_
 _symmetry_equiv_pos_site_id
 _symmetry_equiv_pos_as_xyz
  1  'x, y, z'
loop_
 _atom_site_type_symbol
 _atom_site_label
 _atom_site_symmetry_multiplicity
 _atom_site_fract_x
 _atom_site_fract_y
 _atom_site_fract_z
 _atom_site_occupancy
  Li  Li0  1  0.64389183  0.49994254  0.59877125  1
  Li  Li1  1  0.35611041  0.50005758  0.59877072  1
  Li  Li2  1  0.60632876  0.74987943  0.84880053  1
  Li  Li3  1  0.85610972  0.50005743  0.09877096  1
  Li  Li4  1  0.10632787  0.74987932  0.34880018  1
  Li  Li5  1  0.89367223  0.75012070  0.84880046  1
  Li  Li6  1  0.14389218  0.49994230  0.09877116  1
  Li  Li7  1  0.10632803  0.24987968  0.84880013  1
  Li  Li8  1  0.89367141  0.25012038  0.34880043  1
  Li  Li9  1  0.14388921  -0.00005706  0.59877067  1
  Li  Li10  1  0.85610885  0.00005737  0.59877043  1
  Li  Li11  1  0.60632840  0.24987944  0.34879993  1
  Li  Li12  1  0.39367171  0.75012061  0.34880055  1
  Li  Li13  1  0.39367134  0.25012046  0.84880062  1
  Li  Li14  1  0.64389022  -0.00005758  0.09877063  1
  Li  Li15  1  0.35610741  0.00005751  0.09877065  1
  Br  Br16  1  -0.00003700  0.69515601  0.09885947  1
  Br  Br17  1  0.00003798  0.30484369  0.09885982  1
  Br  Br18  1  0.25012320  -0.05477983  0.34891857  1
  Br  Br19  1  0.50003812  0.30484408  0.59886016  1
  Br  Br20  1  0.75012435  -0.05477986  0.84891918  1
  Br  Br21  1  0.24987629  0.55477986  0.34891920  1
  Br  Br22  1  0.49996309  0.69515639  0.59885948  1
  Br  Br23  1  0.75012352  0.44521993  0.34891769  1
  Br  Br24  1  0.24987612  0.05477998  0.84891745  1
  Br  Br25  1  0.49996179  0.19515579  0.09885974  1
  Br  Br26  1  0.50003702  0.80484368  0.09885934  1
  Br  Br27  1  0.25012411  0.44522012  0.84891837  1
  Br  Br28  1  0.74987733  0.55477957  0.84891822  1
  Br  Br29  1  0.74987577  0.05477998  0.34891853  1
  Br  Br30  1  -0.00003833  0.19515659  0.59885994  1
  Br  Br31  1  0.00003705  0.80484390  0.59885915  1
