# generated using pymatgen
data_NaI
_symmetry_space_group_name_H-M   'P 1'
_cell_length_a   6.52567721
_cell_length_b   9.22914217
_cell_length_c   4.62767359
_cell_angle_alpha   90.00000741
_cell_angle_beta   89.99998663
_cell_angle_gamma   89.99999511
_symmetry_Int_Tables_number   1
_chemical_formula_structural   NaI
_chemical_formula_sum   'Na4 I4'
_cell_volume   278.70813360
_cell_formula_units_Z   4
loop_
 _symmetry_equiv_pos_site_id
 _symmetry_equiv_pos_as_xyz
  1  'x, y, z'
loop_
 _atom_site_type_symbol
 _atom_site_label
 _atom_site_symmetry_multiplicity
 _atom_site_fract_x
 _atom_site_fract_y
 _atom_site_fract_z
 _atom_site_occupancy
  Na  Na0  1  0.50047918  0.12454547  0.74884274  1
  Na  Na1  1  0.49952056  0.62454548  0.75115721  1
  Na  Na2  1  -0.00047891  0.87545338  0.24882131  1
  Na  Na3  1  0.00047907  0.37545336  0.25117867  1
  I  I4  1  -0.00004694  0.12540137  0.75146565  1
  I  I5  1  0.00004689  0.62540140  0.74853405  1
  I  I6  1  0.50004720  0.87459976  0.25146262  1
  I  I7  1  0.49995295  0.37459977  0.24853774  1
