# generated using pymatgen
data_LiBr
_symmetry_space_group_name_H-M   'P 1'
_cell_length_a   9.85259773
_cell_length_b   9.85259878
_cell_length_c   13.33377005
_cell_angle_alpha   90.00099762
_cell_angle_beta   89.99903451
_cell_angle_gamma   120.00359996
_symmetry_Int_Tables_number   1
_chemical_formula_structural   LiBr
_chemical_formula_sum   'Li18 Br18'
_cell_volume   1120.90649642
_cell_formula_units_Z   18
loop_
 _symmetry_equiv_pos_site_id
 _symmetry_equiv_pos_as_xyz
  1  'x, y, z'
loop_
 _atom_site_type_symbol
 _atom_site_label
 _atom_site_symmetry_multiplicity
 _atom_site_fract_x
 _atom_site_fract_y
 _atom_site_fract_z
 _atom_site_occupancy
  Li  Li0  1  -0.00008077  0.25306695  0.41957798  1
  Li  Li1  1  -0.00007598  0.74685168  0.91958836  1
  Li  Li2  1  0.08039904  0.66673804  0.58604727  1
  Li  Li3  1  0.58636875  -0.08035999  0.58603513  1
  Li  Li4  1  0.41383501  0.08038097  0.75286536  1
  Li  Li5  1  0.74690292  0.74683416  0.41956306  1
  Li  Li6  1  0.58634502  0.66672504  0.08606356  1
  Li  Li7  1  0.08036018  0.41363089  0.08603631  1
  Li  Li8  1  0.25314814  0.00007609  0.41958951  1
  Li  Li9  1  0.25316532  0.25309801  0.91956151  1
  Li  Li10  1  0.33326071  -0.08039953  0.08604852  1
  Li  Li11  1  0.33327487  0.41365406  0.58606276  1
  Li  Li12  1  0.91959084  0.33344929  0.75288788  1
  Li  Li13  1  0.91961898  0.58616558  0.25286425  1
  Li  Li14  1  0.74693289  0.00008060  0.91957666  1
  Li  Li15  1  0.41386364  0.33345913  0.25288345  1
  Li  Li16  1  0.66654086  0.58613683  0.75288413  1
  Li  Li17  1  0.66655148  0.08040899  0.25288690  1
  Br  Br18  1  0.26356693  -0.00019383  0.91944918  1
  Br  Br19  1  0.26354127  0.26371521  0.41945248  1
  Br  Br20  1  0.33352700  0.40309711  0.08617204  1
  Br  Br21  1  0.06957291  0.66649572  0.08614498  1
  Br  Br22  1  0.66685388  0.59721161  0.25272815  1
  Br  Br23  1  0.00016307  0.26376152  0.91942303  1
  Br  Br24  1  0.06962162  0.40312419  0.58617455  1
  Br  Br25  1  0.33350407  0.93042717  0.58614583  1
  Br  Br26  1  0.73628537  0.73645871  0.91945311  1
  Br  Br27  1  0.73623870  -0.00016382  0.41942234  1
  Br  Br28  1  0.59690246  0.66647309  0.58617246  1
  Br  Br29  1  0.59687522  0.93037866  0.08617374  1
  Br  Br30  1  0.40283259  0.06968766  0.25275353  1
  Br  Br31  1  0.40278820  0.33314601  0.75272773  1
  Br  Br32  1  0.00019427  0.73643338  0.41944871  1
  Br  Br33  1  0.66687517  0.06965706  0.75275249  1
  Br  Br34  1  0.93034343  0.33312602  0.25275392  1
  Br  Br35  1  0.93031194  0.59716774  0.75275254  1
