# generated using pymatgen
data_LiBr
_symmetry_space_group_name_H-M   'P 1'
_cell_length_a   11.32811173
_cell_length_b   11.32762316
_cell_length_c   3.63386442
_cell_angle_alpha   90.00000186
_cell_angle_beta   89.99993509
_cell_angle_gamma   90.00009789
_symmetry_Int_Tables_number   1
_chemical_formula_structural   LiBr
_chemical_formula_sum   'Li8 Br8'
_cell_volume   466.29959303
_cell_formula_units_Z   8
loop_
 _symmetry_equiv_pos_site_id
 _symmetry_equiv_pos_as_xyz
  1  'x, y, z'
loop_
 _atom_site_type_symbol
 _atom_site_label
 _atom_site_symmetry_multiplicity
 _atom_site_fract_x
 _atom_site_fract_y
 _atom_site_fract_z
 _atom_site_occupancy
  Li  Li0  1  0.64259811  0.63028365  0.27716687  1
  Li  Li1  1  0.13028274  0.14260843  0.77716836  1
  Li  Li2  1  0.35740064  0.36971161  0.27716699  1
  Li  Li3  1  0.63028428  0.35739850  0.27716840  1
  Li  Li4  1  0.36971258  0.64259450  0.27716737  1
  Li  Li5  1  0.85740457  0.13028985  0.77717114  1
  Li  Li6  1  0.86971871  0.85739935  0.77716833  1
  Li  Li7  1  0.14259869  0.86971627  0.77716945  1
  Br  Br8  1  0.73126428  0.48936769  0.77758439  1
  Br  Br9  1  -0.01063255  0.23126714  0.27758568  1
  Br  Br10  1  0.26873348  0.51062815  0.77758477  1
  Br  Br11  1  0.48936823  0.26872836  0.77758556  1
  Br  Br12  1  0.51062994  0.73126771  0.77758679  1
  Br  Br13  1  0.76873343  -0.01063434  0.27758853  1
  Br  Br14  1  0.01063486  0.76873571  0.27758726  1
  Br  Br15  1  0.23126802  0.01063743  0.27758781  1
