# generated using pymatgen
data_LiBr
_symmetry_space_group_name_H-M   'P 1'
_cell_length_a   4.33511755
_cell_length_b   6.19570829
_cell_length_c   8.28564655
_cell_angle_alpha   89.99946383
_cell_angle_beta   91.15776930
_cell_angle_gamma   90.00001206
_symmetry_Int_Tables_number   1
_chemical_formula_structural   LiBr
_chemical_formula_sum   'Li4 Br4'
_cell_volume   222.49977285
_cell_formula_units_Z   4
loop_
 _symmetry_equiv_pos_site_id
 _symmetry_equiv_pos_as_xyz
  1  'x, y, z'
loop_
 _atom_site_type_symbol
 _atom_site_label
 _atom_site_symmetry_multiplicity
 _atom_site_fract_x
 _atom_site_fract_y
 _atom_site_fract_z
 _atom_site_occupancy
  Li  Li0  1  0.75325766  0.52998954  0.15350163  1
  Li  Li1  1  0.24674255  0.02999173  0.34650503  1
  Li  Li2  1  0.24674076  0.47001489  0.84649967  1
  Li  Li3  1  0.75325882  -0.02998673  0.65349404  1
  Br  Br4  1  0.25240429  0.18099558  0.63660890  1
  Br  Br5  1  0.74759472  0.68099305  0.86338904  1
  Br  Br6  1  0.74759714  0.81900023  0.36338770  1
  Br  Br7  1  0.25240405  0.31900172  0.13661399  1
