# generated using pymatgen
data_LiI
_symmetry_space_group_name_H-M   'P 1'
_cell_length_a   9.56966450
_cell_length_b   8.26251266
_cell_length_c   7.36083039
_cell_angle_alpha   89.99881207
_cell_angle_beta   89.99848256
_cell_angle_gamma   89.99820493
_symmetry_Int_Tables_number   1
_chemical_formula_structural   LiI
_chemical_formula_sum   'Li8 I8'
_cell_volume   582.01698663
_cell_formula_units_Z   8
loop_
 _symmetry_equiv_pos_site_id
 _symmetry_equiv_pos_as_xyz
  1  'x, y, z'
loop_
 _atom_site_type_symbol
 _atom_site_label
 _atom_site_symmetry_multiplicity
 _atom_site_fract_x
 _atom_site_fract_y
 _atom_site_fract_z
 _atom_site_occupancy
  Li  Li0  1  0.63531051  0.13931574  0.33263554  1
  Li  Li1  1  0.13532362  0.36070561  0.33263113  1
  Li  Li2  1  0.36498289  0.13941823  0.83192874  1
  Li  Li3  1  0.36494556  0.86064300  0.33195506  1
  Li  Li4  1  0.63515516  0.86047842  0.83264573  1
  Li  Li5  1  0.86492913  0.63932186  0.33197940  1
  Li  Li6  1  0.86499471  0.36054854  0.83191020  1
  Li  Li7  1  0.13513825  0.63954652  0.83265094  1
  I  I8  1  0.14122117  0.31763320  -0.04245535  1
  I  I9  1  0.64118166  0.18239478  -0.04245068  1
  I  I10  1  0.85871915  0.31812205  0.45717751  1
  I  I11  1  0.85864620  0.68181496  -0.04279702  1
  I  I12  1  0.14102746  0.68258461  0.45751959  1
  I  I13  1  0.35864665  0.81817457  -0.04283424  1
  I  I14  1  0.35871724  0.18186160  0.45720999  1
  I  I15  1  0.64106066  0.81743629  0.45751609  1
