# generated using pymatgen
data_LiBr
_symmetry_space_group_name_H-M   'P 1'
_cell_length_a   10.96559238
_cell_length_b   8.99861728
_cell_length_c   9.05968452
_cell_angle_alpha   90.00002582
_cell_angle_beta   89.99999361
_cell_angle_gamma   90.00037725
_symmetry_Int_Tables_number   1
_chemical_formula_structural   LiBr
_chemical_formula_sum   'Li16 Br16'
_cell_volume   893.96590177
_cell_formula_units_Z   16
loop_
 _symmetry_equiv_pos_site_id
 _symmetry_equiv_pos_as_xyz
  1  'x, y, z'
loop_
 _atom_site_type_symbol
 _atom_site_label
 _atom_site_symmetry_multiplicity
 _atom_site_fract_x
 _atom_site_fract_y
 _atom_site_fract_z
 _atom_site_occupancy
  Li  Li0  1  0.34928601  0.00069549  0.79903778  1
  Li  Li1  1  0.65071426  -0.00069485  0.79903921  1
  Li  Li2  1  0.90079769  0.25072317  0.04907363  1
  Li  Li3  1  0.15071560  -0.00069391  0.29903889  1
  Li  Li4  1  0.40080013  0.25072187  0.54907259  1
  Li  Li5  1  0.59920248  0.24927798  0.04907359  1
  Li  Li6  1  0.84928578  0.00069515  0.29903845  1
  Li  Li7  1  0.40079925  0.75072268  0.04907296  1
  Li  Li8  1  0.59920117  0.74927853  0.54907359  1
  Li  Li9  1  0.84928379  0.50069460  0.79903755  1
  Li  Li10  1  0.15071148  0.49930308  0.79903912  1
  Li  Li11  1  0.90080030  0.75072211  0.54907272  1
  Li  Li12  1  0.09920065  0.24927733  0.54907412  1
  Li  Li13  1  0.09920467  0.74927674  0.04907371  1
  Li  Li14  1  0.34928342  0.50069445  0.29903813  1
  Li  Li15  1  0.65071352  0.49930675  0.29903862  1
  Br  Br16  1  0.49936492  0.78331743  0.79838502  1
  Br  Br17  1  0.50063650  0.21668286  0.79838441  1
  Br  Br18  1  0.75063196  0.03333683  0.04840906  1
  Br  Br19  1  0.00063645  0.21668325  0.29838378  1
  Br  Br20  1  0.25063180  0.03333753  0.54840908  1
  Br  Br21  1  0.74936777  0.46666336  0.04840836  1
  Br  Br22  1  -0.00063385  0.78331710  0.29838572  1
  Br  Br23  1  0.25063291  0.53333605  0.04840720  1
  Br  Br24  1  0.74936884  0.96666273  0.54840853  1
  Br  Br25  1  -0.00063788  0.28331678  0.79838404  1
  Br  Br26  1  0.00063462  0.71668189  0.79838585  1
  Br  Br27  1  0.75063192  0.53333788  0.54840725  1
  Br  Br28  1  0.24936760  0.46666207  0.54840889  1
  Br  Br29  1  0.24936832  0.96666292  0.04840704  1
  Br  Br30  1  0.49936414  0.28331745  0.29838485  1
  Br  Br31  1  0.50063377  0.71668269  0.29838576  1
