# generated using pymatgen
data_LiBr
_symmetry_space_group_name_H-M   'P 1'
_cell_length_a   4.30326675
_cell_length_b   7.29112759
_cell_length_c   6.91448646
_cell_angle_alpha   90.00028069
_cell_angle_beta   89.99993463
_cell_angle_gamma   89.99958081
_symmetry_Int_Tables_number   1
_chemical_formula_structural   LiBr
_chemical_formula_sum   'Li4 Br4'
_cell_volume   216.94662382
_cell_formula_units_Z   4
loop_
 _symmetry_equiv_pos_site_id
 _symmetry_equiv_pos_as_xyz
  1  'x, y, z'
loop_
 _atom_site_type_symbol
 _atom_site_label
 _atom_site_symmetry_multiplicity
 _atom_site_fract_x
 _atom_site_fract_y
 _atom_site_fract_z
 _atom_site_occupancy
  Li  Li0  1  0.25198329  0.15326603  0.34585249  1
  Li  Li1  1  0.74801452  0.65326588  0.15414423  1
  Li  Li2  1  0.24802225  0.84673126  0.84586041  1
  Li  Li3  1  0.75197664  0.34673197  0.65414284  1
  Br  Br4  1  0.74801650  0.67147782  0.77988625  1
  Br  Br5  1  0.25198252  0.17147400  0.72012012  1
  Br  Br6  1  0.75198450  0.32852836  0.27984569  1
  Br  Br7  1  0.24801979  -0.17147533  0.22014796  1
