# generated using pymatgen
data_LiBr
_symmetry_space_group_name_H-M   'P 1'
_cell_length_a   11.01499467
_cell_length_b   11.01848728
_cell_length_c   7.16323765
_cell_angle_alpha   90.00005987
_cell_angle_beta   90.00045962
_cell_angle_gamma   89.99994525
_symmetry_Int_Tables_number   1
_chemical_formula_structural   LiBr
_chemical_formula_sum   'Li16 Br16'
_cell_volume   869.39197211
_cell_formula_units_Z   16
loop_
 _symmetry_equiv_pos_site_id
 _symmetry_equiv_pos_as_xyz
  1  'x, y, z'
loop_
 _atom_site_type_symbol
 _atom_site_label
 _atom_site_symmetry_multiplicity
 _atom_site_fract_x
 _atom_site_fract_y
 _atom_site_fract_z
 _atom_site_occupancy
  Li  Li0  1  0.62521447  0.55555031  0.73868893  1
  Li  Li1  1  0.05566754  0.62536077  -0.01139086  1
  Li  Li2  1  0.37478608  0.55554945  0.23868814  1
  Li  Li3  1  0.37478545  0.44445048  0.73868664  1
  Li  Li4  1  0.94433334  0.37464088  -0.01139049  1
  Li  Li5  1  0.44433283  0.12535789  -0.01138725  1
  Li  Li6  1  0.55566663  0.87463849  -0.01139166  1
  Li  Li7  1  0.94433346  0.62535746  0.48861110  1
  Li  Li8  1  0.05566780  0.37463843  0.48860774  1
  Li  Li9  1  0.87478953  0.94444948  0.23868655  1
  Li  Li10  1  0.44433397  0.87464272  0.48861079  1
  Li  Li11  1  0.12521325  0.05554953  0.23868714  1
  Li  Li12  1  0.55566763  0.12536106  0.48860871  1
  Li  Li13  1  0.87478822  0.05555001  0.73868573  1
  Li  Li14  1  0.12521156  0.94445086  0.73868658  1
  Li  Li15  1  0.62521522  0.44445003  0.23868593  1
  Br  Br16  1  0.64924983  0.05638655  0.80236409  1
  Br  Br17  1  0.55635173  0.64919171  0.05255002  1
  Br  Br18  1  0.35074803  0.05638921  0.30237080  1
  Br  Br19  1  0.35074653  0.94361084  0.80236968  1
  Br  Br20  1  0.44364816  0.35080643  0.05254723  1
  Br  Br21  1  0.94364783  0.14919382  0.05254391  1
  Br  Br22  1  0.05635202  0.85080809  0.05254947  1
  Br  Br23  1  0.44364845  0.64919458  0.55254818  1
  Br  Br24  1  0.55635198  0.35080851  0.55254825  1
  Br  Br25  1  0.85074972  0.44361191  0.30236890  1
  Br  Br26  1  0.94364666  0.85080590  0.55254735  1
  Br  Br27  1  0.14925058  0.55638655  0.30236438  1
  Br  Br28  1  0.05635104  0.14919203  0.55254622  1
  Br  Br29  1  0.85074938  0.55638866  0.80236906  1
  Br  Br30  1  0.14924994  0.44361368  0.80236400  1
  Br  Br31  1  0.64925114  0.94361372  0.30236290  1
