# generated using pymatgen
data_NaI
_symmetry_space_group_name_H-M   'P 1'
_cell_length_a   13.07597916
_cell_length_b   6.52223591
_cell_length_c   6.52092558
_cell_angle_alpha   89.99999466
_cell_angle_beta   90.00000746
_cell_angle_gamma   90.00000433
_symmetry_Int_Tables_number   1
_chemical_formula_structural   NaI
_chemical_formula_sum   'Na8 I8'
_cell_volume   556.13466502
_cell_formula_units_Z   8
loop_
 _symmetry_equiv_pos_site_id
 _symmetry_equiv_pos_as_xyz
  1  'x, y, z'
loop_
 _atom_site_type_symbol
 _atom_site_label
 _atom_site_symmetry_multiplicity
 _atom_site_fract_x
 _atom_site_fract_y
 _atom_site_fract_z
 _atom_site_occupancy
  Na  Na0  1  0.87484731  0.74903395  0.64560475  1
  Na  Na1  1  0.37484715  0.75096576  0.64560718  1
  Na  Na2  1  0.12515269  0.74903380  0.14560549  1
  Na  Na3  1  0.12515286  0.25096599  0.64560793  1
  Na  Na4  1  0.87484717  0.25096569  0.14560718  1
  Na  Na5  1  0.62515271  0.24903376  0.64560548  1
  Na  Na6  1  0.62515286  0.75096589  0.14560793  1
  Na  Na7  1  0.37484730  0.24903401  0.14560472  1
  I  I8  1  0.87491649  0.75003302  0.14541394  1
  I  I9  1  0.37491629  0.74996727  0.14541518  1
  I  I10  1  0.12508349  0.75003322  0.64541290  1
  I  I11  1  0.12508370  0.24996712  0.14541413  1
  I  I12  1  0.87491630  0.24996722  0.64541518  1
  I  I13  1  0.62508350  0.25003315  0.14541289  1
  I  I14  1  0.62508369  0.74996708  0.64541415  1
  I  I15  1  0.37491649  0.25003306  0.64541394  1
