# generated using pymatgen
data_LiBr
_symmetry_space_group_name_H-M   'P 1'
_cell_length_a   6.46222564
_cell_length_b   6.63744769
_cell_length_c   3.87727295
_cell_angle_alpha   90.00003502
_cell_angle_beta   89.99999974
_cell_angle_gamma   90.00000546
_symmetry_Int_Tables_number   1
_chemical_formula_structural   LiBr
_chemical_formula_sum   'Li4 Br4'
_cell_volume   166.30664617
_cell_formula_units_Z   4
loop_
 _symmetry_equiv_pos_site_id
 _symmetry_equiv_pos_as_xyz
  1  'x, y, z'
loop_
 _atom_site_type_symbol
 _atom_site_label
 _atom_site_symmetry_multiplicity
 _atom_site_fract_x
 _atom_site_fract_y
 _atom_site_fract_z
 _atom_site_occupancy
  Li  Li0  1  0.50173931  0.75176548  0.89433380  1
  Li  Li1  1  0.00173931  0.74823437  0.89434393  1
  Li  Li2  1  0.49826067  0.24823470  0.39434755  1
  Li  Li3  1  -0.00173930  0.25176526  0.39433548  1
  Br  Br4  1  0.24994876  0.08266986  0.89316064  1
  Br  Br5  1  0.74994807  0.41733036  0.89316062  1
  Br  Br6  1  0.75005171  0.91733028  0.39316040  1
  Br  Br7  1  0.25005149  0.58266969  0.39316030  1
