# generated using pymatgen
data_LiI
_symmetry_space_group_name_H-M   'P 1'
_cell_length_a   8.57402382
_cell_length_b   8.57443236
_cell_length_c   11.79445142
_cell_angle_alpha   90.00166492
_cell_angle_beta   90.00123076
_cell_angle_gamma   89.98819796
_symmetry_Int_Tables_number   1
_chemical_formula_structural   LiI
_chemical_formula_sum   'Li16 I16'
_cell_volume   867.09723463
_cell_formula_units_Z   16
loop_
 _symmetry_equiv_pos_site_id
 _symmetry_equiv_pos_as_xyz
  1  'x, y, z'
loop_
 _atom_site_type_symbol
 _atom_site_label
 _atom_site_symmetry_multiplicity
 _atom_site_fract_x
 _atom_site_fract_y
 _atom_site_fract_z
 _atom_site_occupancy
  Li  Li0  1  0.75263782  0.50172593  0.19713876  1
  Li  Li1  1  0.00172550  0.75263649  0.44713795  1
  Li  Li2  1  0.24735460  0.50172680  0.69713702  1
  Li  Li3  1  0.24736177  0.49827191  0.19713812  1
  Li  Li4  1  -0.00172772  0.24736283  0.44713833  1
  Li  Li5  1  0.49827563  0.25264487  0.44713688  1
  Li  Li6  1  0.50172581  0.74735546  0.44713713  1
  Li  Li7  1  -0.00172471  0.75264369  0.94713664  1
  Li  Li8  1  0.00172598  0.24735694  0.94713719  1
  Li  Li9  1  0.74736315  -0.00172754  0.69713741  1
  Li  Li10  1  0.49827444  0.74736255  0.94713782  1
  Li  Li11  1  0.25263724  0.00172490  0.69713797  1
  Li  Li12  1  0.50172371  0.25263766  0.94713781  1
  Li  Li13  1  0.74735557  0.00172771  0.19713751  1
  Li  Li14  1  0.25264386  -0.00172579  0.19713730  1
  Li  Li15  1  0.75264412  0.49827515  0.69713681  1
  I  I16  1  0.49988369  0.25059578  0.69731224  1
  I  I17  1  0.75059659  0.49987897  0.94731036  1
  I  I18  1  0.50011782  0.25058778  0.19731134  1
  I  I19  1  0.50011906  0.74940341  0.69731037  1
  I  I20  1  0.24940312  0.50011772  0.94731163  1
  I  I21  1  0.74941051  -0.00011574  0.94731250  1
  I  I22  1  0.25059002  0.00011944  0.94731454  1
  I  I23  1  0.24941254  0.49988336  0.44731250  1
  I  I24  1  0.75058840  0.50011905  0.44731378  1
  I  I25  1  0.00011921  0.24940242  0.19730927  1
  I  I26  1  0.74940267  0.00011754  0.44731125  1
  I  I27  1  -0.00011625  0.75059706  0.19731079  1
  I  I28  1  0.25059726  -0.00011996  0.44730970  1
  I  I29  1  0.00011846  0.75058797  0.69731241  1
  I  I30  1  -0.00011985  0.24941254  0.69731436  1
  I  I31  1  0.49987996  0.74941307  0.19731288  1
