# generated using pymatgen
data_LiBr
_symmetry_space_group_name_H-M   'P 1'
_cell_length_a   10.72738542
_cell_length_b   10.72957014
_cell_length_c   7.19725717
_cell_angle_alpha   90.00000798
_cell_angle_beta   90.00000255
_cell_angle_gamma   89.99987250
_symmetry_Int_Tables_number   1
_chemical_formula_structural   LiBr
_chemical_formula_sum   'Li16 Br16'
_cell_volume   828.40598564
_cell_formula_units_Z   16
loop_
 _symmetry_equiv_pos_site_id
 _symmetry_equiv_pos_as_xyz
  1  'x, y, z'
loop_
 _atom_site_type_symbol
 _atom_site_label
 _atom_site_symmetry_multiplicity
 _atom_site_fract_x
 _atom_site_fract_y
 _atom_site_fract_z
 _atom_site_occupancy
  Li  Li0  1  0.62748550  0.04601469  0.62643951  1
  Li  Li1  1  0.54604135  0.62742701  0.87687088  1
  Li  Li2  1  0.37251412  0.04601143  0.12644108  1
  Li  Li3  1  0.37251435  0.95398520  0.62643838  1
  Li  Li4  1  0.45395863  0.37257354  0.87687130  1
  Li  Li5  1  0.95396131  0.12742753  0.87687440  1
  Li  Li6  1  0.04603866  0.87257282  0.87687485  1
  Li  Li7  1  0.45396234  0.62742758  0.37686992  1
  Li  Li8  1  0.54603786  0.37257183  0.37686936  1
  Li  Li9  1  0.87251469  0.45398761  0.12644047  1
  Li  Li10  1  0.95395841  0.87257349  0.37687508  1
  Li  Li11  1  0.12748543  0.54601294  0.12643972  1
  Li  Li12  1  0.04604163  0.12742629  0.37687562  1
  Li  Li13  1  0.87251410  0.54601011  0.62644189  1
  Li  Li14  1  0.12748621  0.45398944  0.62643989  1
  Li  Li15  1  0.62748615  0.95398850  0.12644052  1
  Br  Br16  1  0.65883085  0.45857010  0.68223228  1
  Br  Br17  1  0.95852616  0.65881765  0.93175098  1
  Br  Br18  1  0.34116798  0.45857196  0.18223409  1
  Br  Br19  1  0.34116877  0.54143027  0.68223377  1
  Br  Br20  1  0.04147337  0.34118307  0.93175028  1
  Br  Br21  1  0.54147238  0.15881821  0.93175210  1
  Br  Br22  1  0.45852801  0.84118224  0.93175138  1
  Br  Br23  1  0.04147036  0.65881749  0.43175046  1
  Br  Br24  1  0.95852944  0.34118204  0.43175018  1
  Br  Br25  1  0.84116850  0.04142964  0.18223796  1
  Br  Br26  1  0.54147467  0.84118206  0.43175173  1
  Br  Br27  1  0.15883183  0.95857017  0.18223810  1
  Br  Br28  1  0.45852533  0.15881751  0.43175216  1
  Br  Br29  1  0.84116809  0.95857270  0.68223772  1
  Br  Br30  1  0.15883204  0.04142739  0.68223795  1
  Br  Br31  1  0.65883146  0.54142750  0.18223247  1
