# generated using pymatgen
data_LiBr
_symmetry_space_group_name_H-M   'P 1'
_cell_length_a   14.17462317
_cell_length_b   14.17436213
_cell_length_c   14.17470777
_cell_angle_alpha   90.00001295
_cell_angle_beta   90.00000762
_cell_angle_gamma   89.99992353
_symmetry_Int_Tables_number   1
_chemical_formula_structural   LiBr
_chemical_formula_sum   'Li48 Br48'
_cell_volume   2847.92901487
_cell_formula_units_Z   48
loop_
 _symmetry_equiv_pos_site_id
 _symmetry_equiv_pos_as_xyz
  1  'x, y, z'
loop_
 _atom_site_type_symbol
 _atom_site_label
 _atom_site_symmetry_multiplicity
 _atom_site_fract_x
 _atom_site_fract_y
 _atom_site_fract_z
 _atom_site_occupancy
  Li  Li0  1  0.84504707  0.47472039  0.55195094  1
  Li  Li1  1  0.72509346  0.09408906  0.80284602  1
  Li  Li2  1  0.34504884  0.02528168  0.44805059  1
  Li  Li3  1  0.27490734  0.40591106  0.80284711  1
  Li  Li4  1  0.65495152  0.47471949  0.44804898  1
  Li  Li5  1  0.69715504  0.72509319  0.90590897  1
  Li  Li6  1  0.69715334  0.27490650  0.59408944  1
  Li  Li7  1  0.77490579  0.09409005  0.19715379  1
  Li  Li8  1  0.34504992  -0.02528071  0.05195129  1
  Li  Li9  1  0.22509303  0.59408975  0.30284595  1
  Li  Li10  1  0.55195169  0.15495391  0.02528167  1
  Li  Li11  1  0.40590851  0.80284249  0.27490740  1
  Li  Li12  1  0.44804822  0.34504511  0.02528193  1
  Li  Li13  1  0.59409017  0.30284327  0.22509250  1
  Li  Li14  1  0.40590926  0.19715608  0.22509267  1
  Li  Li15  1  0.05195192  0.34504386  -0.02528108  1
  Li  Li16  1  0.59409034  0.69715756  0.27490807  1
  Li  Li17  1  0.09409110  0.19715688  0.77490776  1
  Li  Li18  1  0.44804878  0.65495527  0.47471880  1
  Li  Li19  1  0.72509423  0.90591084  0.69715465  1
  Li  Li20  1  0.47471782  0.55195021  0.84504498  1
  Li  Li21  1  0.52528286  0.05195233  0.65495571  1
  Li  Li22  1  0.30284564  0.22509448  0.59409054  1
  Li  Li23  1  -0.02528249  0.94804923  0.15495062  1
  Li  Li24  1  0.80284758  0.27490615  0.40590981  1
  Li  Li25  1  0.52528195  0.94804841  0.84504341  1
  Li  Li26  1  0.94804890  0.15495511  -0.02528142  1
  Li  Li27  1  0.22509326  0.40591068  0.19715370  1
  Li  Li28  1  0.65494951  0.52528034  0.05195023  1
  Li  Li29  1  0.84504838  0.52528020  0.94804993  1
  Li  Li30  1  0.77490713  0.90591073  0.30284562  1
  Li  Li31  1  0.15495429  -0.02528086  0.94804850  1
  Li  Li32  1  0.19715383  0.22509432  0.40591014  1
  Li  Li33  1  0.19715287  0.77490544  0.09408861  1
  Li  Li34  1  0.02528280  0.55194953  0.15495159  1
  Li  Li35  1  0.80284529  0.72509354  0.09409109  1
  Li  Li36  1  0.15495135  0.02528057  0.55195070  1
  Li  Li37  1  0.27490456  0.59408941  0.69715362  1
  Li  Li38  1  0.47471771  0.44805045  0.65495320  1
  Li  Li39  1  0.30284716  0.77490544  0.90591006  1
  Li  Li40  1  0.02528194  0.44805133  0.34504740  1
  Li  Li41  1  -0.02528136  0.05195095  0.34504271  1
  Li  Li42  1  0.90591066  0.69715361  0.72509089  1
  Li  Li43  1  0.94804939  0.84504806  0.52528124  1
  Li  Li44  1  0.09408898  0.80284411  0.72509307  1
  Li  Li45  1  0.05194971  0.65495452  0.52528148  1
  Li  Li46  1  0.90590863  0.30284234  0.77490800  1
  Li  Li47  1  0.55195148  0.84504693  0.47471901  1
  Br  Br48  1  0.12679412  0.80874116  0.89936398  1
  Br  Br49  1  0.05922724  0.37625598  0.14871809  1
  Br  Br50  1  0.62679341  0.69125779  0.10063716  1
  Br  Br51  1  0.94077272  0.12374227  0.14871836  1
  Br  Br52  1  0.37320593  0.80874047  0.10063606  1
  Br  Br53  1  0.35128222  0.05922879  0.62374511  1
  Br  Br54  1  0.35128188  0.94077204  0.87625677  1
  Br  Br55  1  0.44077349  0.37625669  0.85128213  1
  Br  Br56  1  0.62679469  0.30874101  0.39936429  1
  Br  Br57  1  0.55922673  0.87625801  0.64871967  1
  Br  Br58  1  0.89936243  0.87320666  0.69126061  1
  Br  Br59  1  0.12374325  0.14871753  0.94077368  1
  Br  Br60  1  0.10063616  0.62679312  0.69126062  1
  Br  Br61  1  0.87625453  0.64871751  0.55922525  1
  Br  Br62  1  0.12374465  0.85128323  0.55922676  1
  Br  Br63  1  0.39936124  0.62679235  0.30874150  1
  Br  Br64  1  0.87625698  0.35128125  0.94077335  1
  Br  Br65  1  0.37625673  0.85128359  0.44077335  1
  Br  Br66  1  0.10063894  0.37320732  0.80874036  1
  Br  Br67  1  0.05922733  0.62374357  0.35128228  1
  Br  Br68  1  0.80874064  0.89936239  0.12679170  1
  Br  Br69  1  0.19125889  0.39936221  0.37320845  1
  Br  Br70  1  0.64871847  0.55922856  0.87625672  1
  Br  Br71  1  0.30874087  0.60063791  0.87320799  1
  Br  Br72  1  0.14871801  0.94077090  0.12374399  1
  Br  Br73  1  0.19125918  0.60063738  0.12679175  1
  Br  Br74  1  0.60063900  0.87320770  0.30874121  1
  Br  Br75  1  0.55922699  0.12374237  0.85128124  1
  Br  Br76  1  0.37320651  0.19125933  0.39936449  1
  Br  Br77  1  0.12679323  0.19125826  0.60063712  1
  Br  Br78  1  0.44077147  0.62374342  0.64871842  1
  Br  Br79  1  0.87320587  0.30874221  0.60063658  1
  Br  Br80  1  0.85128195  0.55922928  0.12374400  1
  Br  Br81  1  0.85128158  0.44077116  0.37625631  1
  Br  Br82  1  0.69125905  0.89936147  0.87320837  1
  Br  Br83  1  0.14871902  0.05922844  0.37625589  1
  Br  Br84  1  0.87320627  0.69125691  0.89936233  1
  Br  Br85  1  0.94077390  0.87625772  0.35128073  1
  Br  Br86  1  0.80874262  0.10063815  0.37320784  1
  Br  Br87  1  0.64871796  0.44077153  0.62374351  1
  Br  Br88  1  0.69125946  0.10063807  0.62679175  1
  Br  Br89  1  0.30874027  0.39936212  0.62679183  1
  Br  Br90  1  0.62374387  0.35128139  0.05922677  1
  Br  Br91  1  0.60063742  0.12679366  0.19126021  1
  Br  Br92  1  0.37625614  0.14871791  0.05922623  1
  Br  Br93  1  0.39936205  0.37320624  0.19125999  1
  Br  Br94  1  0.62374313  0.64871770  0.44077322  1
  Br  Br95  1  0.89936212  0.12679196  0.80874004  1
