# generated using pymatgen
data_LiBr
_symmetry_space_group_name_H-M   'P 1'
_cell_length_a   11.38538421
_cell_length_b   11.38539659
_cell_length_c   8.45662879
_cell_angle_alpha   90.00334906
_cell_angle_beta   89.99651142
_cell_angle_gamma   120.00605425
_symmetry_Int_Tables_number   1
_chemical_formula_structural   LiBr
_chemical_formula_sum   'Li18 Br18'
_cell_volume   949.28638862
_cell_formula_units_Z   18
loop_
 _symmetry_equiv_pos_site_id
 _symmetry_equiv_pos_as_xyz
  1  'x, y, z'
loop_
 _atom_site_type_symbol
 _atom_site_label
 _atom_site_symmetry_multiplicity
 _atom_site_fract_x
 _atom_site_fract_y
 _atom_site_fract_z
 _atom_site_occupancy
  Li  Li0  1  0.59210687  0.94160961  0.82023110  1
  Li  Li1  1  0.59212858  0.65047185  0.32027103  1
  Li  Li2  1  0.39189001  0.07463916  0.98690664  1
  Li  Li3  1  0.68270796  0.60815378  0.98690813  1
  Li  Li4  1  0.72509312  0.98389778  0.15353912  1
  Li  Li5  1  0.05836389  0.65048510  0.82024386  1
  Li  Li6  1  0.68272284  0.07459707  0.48689251  1
  Li  Li7  1  0.39184654  0.31729362  0.48690715  1
  Li  Li8  1  0.34952721  0.40786870  0.82027082  1
  Li  Li9  1  0.34951620  0.94163613  0.32024598  1
  Li  Li10  1  0.92536135  0.60811253  0.48690598  1
  Li  Li11  1  0.92539974  0.31727612  0.98689241  1
  Li  Li12  1  0.01610978  0.74120286  0.15355038  1
  Li  Li13  1  0.01610341  0.27490771  0.65354074  1
  Li  Li14  1  0.05838863  0.40789383  0.32023103  1
  Li  Li15  1  0.72520657  0.74128479  0.65354097  1
  Li  Li16  1  0.25871575  0.27479284  0.15354122  1
  Li  Li17  1  0.25879710  0.98389135  0.65354869  1
  Br  Br18  1  0.74998486  0.89271985  0.41681496  1
  Br  Br19  1  0.74996201  0.85726859  0.91682400  1
  Br  Br20  1  0.44060563  0.91668050  0.58348704  1
  Br  Br21  1  0.47613546  0.55941266  0.58354749  1
  Br  Br22  1  0.77397300  0.19061171  0.75009160  1
  Br  Br23  1  0.10728452  0.85724353  0.41683902  1
  Br  Br24  1  0.47608402  0.91671610  0.08347865  1
  Br  Br25  1  0.44058746  0.52386393  0.08354810  1
  Br  Br26  1  0.14273124  0.25003911  0.41682441  1
  Br  Br27  1  0.14275837  0.89271659  0.91684064  1
  Br  Br28  1  0.08331845  0.55939398  0.08348518  1
  Br  Br29  1  0.08328284  0.52391607  0.58347876  1
  Br  Br30  1  0.80940139  0.58337425  0.75011091  1
  Br  Br31  1  0.80938659  0.22602687  0.25009182  1
  Br  Br32  1  0.10727988  0.25001513  0.91681666  1
  Br  Br33  1  0.77394898  0.58333687  0.25009084  1
  Br  Br34  1  0.41666362  0.22605123  0.75008955  1
  Br  Br35  1  0.41662610  0.19059821  0.25011029  1
