# generated using pymatgen
data_LiBr
_symmetry_space_group_name_H-M   'P 1'
_cell_length_a   7.03050723
_cell_length_b   4.27528101
_cell_length_c   6.92472179
_cell_angle_alpha   89.99988859
_cell_angle_beta   104.19277078
_cell_angle_gamma   90.00008511
_symmetry_Int_Tables_number   1
_chemical_formula_structural   LiBr
_chemical_formula_sum   'Li4 Br4'
_cell_volume   201.78591503
_cell_formula_units_Z   4
loop_
 _symmetry_equiv_pos_site_id
 _symmetry_equiv_pos_as_xyz
  1  'x, y, z'
loop_
 _atom_site_type_symbol
 _atom_site_label
 _atom_site_symmetry_multiplicity
 _atom_site_fract_x
 _atom_site_fract_y
 _atom_site_fract_z
 _atom_site_occupancy
  Li  Li0  1  0.43809577  0.75202673  0.89017088  1
  Li  Li1  1  0.93809506  0.25202749  0.89016630  1
  Li  Li2  1  0.43809718  0.24797254  0.39016128  1
  Li  Li3  1  0.93809719  0.74797244  0.39015578  1
  Br  Br4  1  0.06517209  0.24789609  0.26674533  1
  Br  Br5  1  0.56517170  0.74789659  0.26674755  1
  Br  Br6  1  0.06517299  0.75210403  0.76674481  1
  Br  Br7  1  0.56517265  0.25210408  0.76674687  1
