# generated using pymatgen
data_LiBr
_symmetry_space_group_name_H-M   'P 1'
_cell_length_a   10.04160907
_cell_length_b   10.04122704
_cell_length_c   8.46167113
_cell_angle_alpha   90.00003295
_cell_angle_beta   90.00003429
_cell_angle_gamma   89.99999918
_symmetry_Int_Tables_number   1
_chemical_formula_structural   LiBr
_chemical_formula_sum   'Li16 Br16'
_cell_volume   853.19094838
_cell_formula_units_Z   16
loop_
 _symmetry_equiv_pos_site_id
 _symmetry_equiv_pos_as_xyz
  1  'x, y, z'
loop_
 _atom_site_type_symbol
 _atom_site_label
 _atom_site_symmetry_multiplicity
 _atom_site_fract_x
 _atom_site_fract_y
 _atom_site_fract_z
 _atom_site_occupancy
  Li  Li0  1  0.99962499  0.16955324  0.73752551  1
  Li  Li1  1  0.66951974  0.99965275  0.98786418  1
  Li  Li2  1  0.00037659  0.16955409  0.23752549  1
  Li  Li3  1  0.00037509  0.83044674  0.73752687  1
  Li  Li4  1  0.33048024  0.00034713  0.98786560  1
  Li  Li5  1  0.83047916  0.49965181  0.98786525  1
  Li  Li6  1  0.16952086  0.50034829  0.98786337  1
  Li  Li7  1  0.33048216  0.99965597  0.48786611  1
  Li  Li8  1  0.66951800  0.00034411  0.48786426  1
  Li  Li9  1  0.50037580  0.33044619  0.23752734  1
  Li  Li10  1  0.83048059  0.50034456  0.48786600  1
  Li  Li11  1  0.49962418  0.66955381  0.23752601  1
  Li  Li12  1  0.16951922  0.49965537  0.48786461  1
  Li  Li13  1  0.50037709  0.66955375  0.73752536  1
  Li  Li14  1  0.49962283  0.33044628  0.73752710  1
  Li  Li15  1  0.99962339  0.83044591  0.23752724  1
  Br  Br16  1  0.49958030  0.19164916  0.48774763  1
  Br  Br17  1  0.69164163  0.49957424  0.73783268  1
  Br  Br18  1  0.50041990  0.19164888  -0.01225217  1
  Br  Br19  1  0.50041977  0.80835095  0.48774688  1
  Br  Br20  1  0.30835835  0.50042575  0.73783175  1
  Br  Br21  1  0.80835793  0.99957504  0.73783172  1
  Br  Br22  1  0.19164208  0.00042491  0.73783257  1
  Br  Br23  1  0.30835798  0.49957509  0.23783182  1
  Br  Br24  1  0.69164193  0.50042491  0.23783269  1
  Br  Br25  1  0.00041970  0.30835092  -0.01225312  1
  Br  Br26  1  0.80835840  0.00042504  0.23783186  1
  Br  Br27  1  0.99958035  0.69164920  -0.01225231  1
  Br  Br28  1  0.19164171  0.99957493  0.23783271  1
  Br  Br29  1  0.00041853  0.69164971  0.48774740  1
  Br  Br30  1  0.99958143  0.30835027  0.48774662  1
  Br  Br31  1  0.49958009  0.80835102  -0.01225294  1
