# generated using pymatgen
data_KBr
_symmetry_space_group_name_H-M   'P 1'
_cell_length_a   6.70620530
_cell_length_b   6.71536977
_cell_length_c   6.71128766
_cell_angle_alpha   89.99996562
_cell_angle_beta   89.99976059
_cell_angle_gamma   90.00019367
_symmetry_Int_Tables_number   1
_chemical_formula_structural   KBr
_chemical_formula_sum   'K4 Br4'
_cell_volume   302.24047968
_cell_formula_units_Z   4
loop_
 _symmetry_equiv_pos_site_id
 _symmetry_equiv_pos_as_xyz
  1  'x, y, z'
loop_
 _atom_site_type_symbol
 _atom_site_label
 _atom_site_symmetry_multiplicity
 _atom_site_fract_x
 _atom_site_fract_y
 _atom_site_fract_z
 _atom_site_occupancy
  K  K0  1  0.50088559  0.75038586  0.35144842  1
  K  K1  1  0.00088562  0.24961384  0.35144878  1
  K  K2  1  0.49911433  0.24961380  0.85144831  1
  K  K3  1  -0.00088560  0.75038557  0.85144830  1
  Br  Br4  1  0.49925371  0.74981528  -0.14882534  1
  Br  Br5  1  -0.00074619  0.25018506  -0.14882479  1
  Br  Br6  1  0.50074622  0.25018521  0.35117526  1
  Br  Br7  1  0.00074632  0.74981538  0.35117503  1
