# generated using pymatgen
data_LiBr
_symmetry_space_group_name_H-M   'P 1'
_cell_length_a   3.89256991
_cell_length_b   3.89214064
_cell_length_c   11.02614691
_cell_angle_alpha   90.00044907
_cell_angle_beta   89.99990490
_cell_angle_gamma   90.04600292
_symmetry_Int_Tables_number   1
_chemical_formula_structural   LiBr
_chemical_formula_sum   'Li4 Br4'
_cell_volume   167.05080808
_cell_formula_units_Z   4
loop_
 _symmetry_equiv_pos_site_id
 _symmetry_equiv_pos_as_xyz
  1  'x, y, z'
loop_
 _atom_site_type_symbol
 _atom_site_label
 _atom_site_symmetry_multiplicity
 _atom_site_fract_x
 _atom_site_fract_y
 _atom_site_fract_z
 _atom_site_occupancy
  Li  Li0  1  0.00017080  0.49810858  0.16340186  1
  Li  Li1  1  0.49838769  0.00030198  0.41345203  1
  Li  Li2  1  -0.00016865  0.50189204  0.66340369  1
  Li  Li3  1  0.50160785  -0.00030169  0.91345430  1
  Br  Br4  1  -0.00024927  0.50020116  0.41228472  1
  Br  Br5  1  0.49947701  0.00028854  0.66238309  1
  Br  Br6  1  0.00024700  0.49979669  0.91227944  1
  Br  Br7  1  0.50052758  -0.00028729  0.16238580  1
