# generated using pymatgen
data_NaI
_symmetry_space_group_name_H-M   'P 1'
_cell_length_a   4.61267741
_cell_length_b   7.86416659
_cell_length_c   7.71439463
_cell_angle_alpha   90.00056945
_cell_angle_beta   90.00536068
_cell_angle_gamma   89.99940225
_symmetry_Int_Tables_number   1
_chemical_formula_structural   NaI
_chemical_formula_sum   'Na4 I4'
_cell_volume   279.83861188
_cell_formula_units_Z   4
loop_
 _symmetry_equiv_pos_site_id
 _symmetry_equiv_pos_as_xyz
  1  'x, y, z'
loop_
 _atom_site_type_symbol
 _atom_site_label
 _atom_site_symmetry_multiplicity
 _atom_site_fract_x
 _atom_site_fract_y
 _atom_site_fract_z
 _atom_site_occupancy
  Na  Na0  1  0.25079149  0.25008995  -0.00124529  1
  Na  Na1  1  0.74920736  0.75009406  0.50125549  1
  Na  Na2  1  0.74920845  0.74991005  0.00124526  1
  Na  Na3  1  0.25079273  0.24990598  0.49874451  1
  I  I4  1  0.24944141  0.91588667  0.25023775  1
  I  I5  1  0.75055582  0.41589295  0.24976128  1
  I  I6  1  0.75055858  0.08411331  0.74976229  1
  I  I7  1  0.24944417  0.58410703  0.75023872  1
