# generated using pymatgen
data_NaI
_symmetry_space_group_name_H-M   'P 1'
_cell_length_a   16.10403243
_cell_length_b   5.49189341
_cell_length_c   9.45435640
_cell_angle_alpha   90.00002525
_cell_angle_beta   125.94169125
_cell_angle_gamma   89.99997919
_symmetry_Int_Tables_number   1
_chemical_formula_structural   NaI
_chemical_formula_sum   'Na8 I8'
_cell_volume   676.96640830
_cell_formula_units_Z   8
loop_
 _symmetry_equiv_pos_site_id
 _symmetry_equiv_pos_as_xyz
  1  'x, y, z'
loop_
 _atom_site_type_symbol
 _atom_site_label
 _atom_site_symmetry_multiplicity
 _atom_site_fract_x
 _atom_site_fract_y
 _atom_site_fract_z
 _atom_site_occupancy
  Na  Na0  1  0.62449978  0.25056110  0.04228066  1
  Na  Na1  1  0.12449887  0.24943894  0.54227856  1
  Na  Na2  1  0.37550034  0.74943889  -0.04228054  1
  Na  Na3  1  0.37550108  0.25056126  0.45772154  1
  Na  Na4  1  0.62449880  0.74943861  0.54227850  1
  Na  Na5  1  0.87550025  0.24943869  -0.04228083  1
  Na  Na6  1  0.87550122  0.75056117  0.45772140  1
  Na  Na7  1  0.12449965  0.75056132  0.04228068  1
  I  I8  1  0.37459373  0.24925941  -0.20878733  1
  I  I9  1  0.87459372  0.25074046  0.29121212  1
  I  I10  1  0.62540632  0.75074059  0.20878744  1
  I  I11  1  0.62540630  0.24925932  0.70878772  1
  I  I12  1  0.37459362  0.75074055  0.29121226  1
  I  I13  1  0.12540629  0.25074081  0.20878735  1
  I  I14  1  0.12540635  0.74925966  0.70878789  1
  I  I15  1  0.87459366  0.74925920  -0.20878743  1
