# generated using pymatgen
data_NaI
_symmetry_space_group_name_H-M   'P 1'
_cell_length_a   6.52050241
_cell_length_b   9.26112211
_cell_length_c   4.60986096
_cell_angle_alpha   89.99995367
_cell_angle_beta   90.00010102
_cell_angle_gamma   89.99997691
_symmetry_Int_Tables_number   1
_chemical_formula_structural   NaI
_chemical_formula_sum   'Na4 I4'
_cell_volume   278.37645304
_cell_formula_units_Z   4
loop_
 _symmetry_equiv_pos_site_id
 _symmetry_equiv_pos_as_xyz
  1  'x, y, z'
loop_
 _atom_site_type_symbol
 _atom_site_label
 _atom_site_symmetry_multiplicity
 _atom_site_fract_x
 _atom_site_fract_y
 _atom_site_fract_z
 _atom_site_occupancy
  Na  Na0  1  0.00047831  0.12420972  0.25048148  1
  Na  Na1  1  -0.00047828  0.62420985  0.24951999  1
  Na  Na2  1  0.49952149  0.87578928  0.75051682  1
  Na  Na3  1  0.50047834  0.37578937  0.74948168  1
  I  I4  1  -0.00033820  0.87436633  0.74953272  1
  I  I5  1  0.00033826  0.37436628  0.75046508  1
  I  I6  1  0.50033829  0.12563460  0.24954313  1
  I  I7  1  0.49966179  0.62563457  0.25045909  1
