# generated using pymatgen
data_KI
_symmetry_space_group_name_H-M   'P 1'
_cell_length_a   5.11472188
_cell_length_b   7.18839509
_cell_length_c   10.10589562
_cell_angle_alpha   89.99989680
_cell_angle_beta   89.90390496
_cell_angle_gamma   90.00007871
_symmetry_Int_Tables_number   1
_chemical_formula_structural   KI
_chemical_formula_sum   'K4 I4'
_cell_volume   371.55932009
_cell_formula_units_Z   4
loop_
 _symmetry_equiv_pos_site_id
 _symmetry_equiv_pos_as_xyz
  1  'x, y, z'
loop_
 _atom_site_type_symbol
 _atom_site_label
 _atom_site_symmetry_multiplicity
 _atom_site_fract_x
 _atom_site_fract_y
 _atom_site_fract_z
 _atom_site_occupancy
  K  K0  1  0.25131577  0.75315051  0.12471721  1
  K  K1  1  0.74868442  0.25315050  0.37528297  1
  K  K2  1  0.74868422  0.24684949  0.87528279  1
  K  K3  1  0.25131559  0.74684950  0.62471703  1
  I  I4  1  0.75088097  0.75251043  0.37481456  1
  I  I5  1  0.24911908  0.25251043  0.12518562  1
  I  I6  1  0.24911904  0.24748957  0.62518544  1
  I  I7  1  0.75088093  0.74748957  0.87481438  1
