# generated using pymatgen
data_LiBr
_symmetry_space_group_name_H-M   'P 1'
_cell_length_a   4.17797926
_cell_length_b   4.17797579
_cell_length_c   10.13768408
_cell_angle_alpha   89.99938048
_cell_angle_beta   90.00038617
_cell_angle_gamma   120.00350286
_symmetry_Int_Tables_number   1
_chemical_formula_structural   LiBr
_chemical_formula_sum   'Li3 Br3'
_cell_volume   153.24497845
_cell_formula_units_Z   3
loop_
 _symmetry_equiv_pos_site_id
 _symmetry_equiv_pos_as_xyz
  1  'x, y, z'
loop_
 _atom_site_type_symbol
 _atom_site_label
 _atom_site_symmetry_multiplicity
 _atom_site_fract_x
 _atom_site_fract_y
 _atom_site_fract_z
 _atom_site_occupancy
  Li  Li0  1  0.32763747  0.33084846  0.41496613  1
  Li  Li1  1  0.66915306  -0.00320273  0.08163117  1
  Li  Li2  1  0.00321173  0.67234546  0.74829703  1
  Br  Br3  1  -0.00523370  0.66479941  0.49726438  1
  Br  Br4  1  0.33520696  0.32998142  0.16392581  1
  Br  Br5  1  0.67002448  0.00522799  0.83059879  1
