# generated using pymatgen
data_KI
_symmetry_space_group_name_H-M   'P 1'
_cell_length_a   19.40494657
_cell_length_b   14.09512197
_cell_length_c   7.05730687
_cell_angle_alpha   89.99998858
_cell_angle_beta   89.99943220
_cell_angle_gamma   90.00000095
_symmetry_Int_Tables_number   1
_chemical_formula_structural   KI
_chemical_formula_sum   'K16 I16'
_cell_volume   1930.27991415
_cell_formula_units_Z   16
loop_
 _symmetry_equiv_pos_site_id
 _symmetry_equiv_pos_as_xyz
  1  'x, y, z'
loop_
 _atom_site_type_symbol
 _atom_site_label
 _atom_site_symmetry_multiplicity
 _atom_site_fract_x
 _atom_site_fract_y
 _atom_site_fract_z
 _atom_site_occupancy
  K  K0  1  0.41368498  0.62546990  0.99607300  1
  K  K1  1  0.58631495  0.87453006  0.99606904  1
  K  K2  1  0.58631503  0.62546991  0.49606895  1
  K  K3  1  0.08631486  0.37453013  0.49606894  1
  K  K4  1  0.08631493  0.12546991  0.99606886  1
  K  K5  1  0.08631503  0.62546992  0.00392696  1
  K  K6  1  0.91368491  0.12546990  0.49607285  1
  K  K7  1  0.91368498  0.87453009  0.00393107  1
  K  K8  1  0.91368504  0.37453009  0.99607297  1
  K  K9  1  0.08631498  0.87453010  0.50392702  1
  K  K10  1  0.91368502  0.62546990  0.50393099  1
  K  K11  1  0.41368507  0.37453009  0.50393111  1
  K  K12  1  0.58631491  0.12546991  0.50392706  1
  K  K13  1  0.41368498  0.87453006  0.49607305  1
  K  K14  1  0.58631514  0.37453008  0.00392705  1
  K  K15  1  0.41368515  0.12546989  0.00393109  1
  I  I16  1  0.90326872  0.12454301  0.99638095  1
  I  I17  1  0.09673137  0.37545716  0.99637320  1
  I  I18  1  0.09673122  0.12454287  0.49637334  1
  I  I19  1  0.59673130  0.87545717  0.49637324  1
  I  I20  1  0.59673138  0.62454286  0.99637339  1
  I  I21  1  0.59673127  0.12454297  0.00361909  1
  I  I22  1  0.40326862  0.62454296  0.49638112  1
  I  I23  1  0.40326873  0.37545714  0.00362664  1
  I  I24  1  0.40326866  0.87545701  0.99638096  1
  I  I25  1  0.59673136  0.37545701  0.50361898  1
  I  I26  1  0.40326873  0.12454283  0.50362681  1
  I  I27  1  0.90326869  0.87545713  0.50362666  1
  I  I28  1  0.09673141  0.62454300  0.50361905  1
  I  I29  1  0.90326866  0.37545702  0.49638089  1
  I  I30  1  0.09673132  0.87545703  0.00361891  1
  I  I31  1  0.90326861  0.62454286  0.00362675  1
