# generated using pymatgen
data_KI
_symmetry_space_group_name_H-M   'P 1'
_cell_length_a   7.19624817
_cell_length_b   7.18775387
_cell_length_c   10.15719722
_cell_angle_alpha   89.99999975
_cell_angle_beta   134.86316795
_cell_angle_gamma   90.00000025
_symmetry_Int_Tables_number   1
_chemical_formula_structural   KI
_chemical_formula_sum   'K4 I4'
_cell_volume   372.38562915
_cell_formula_units_Z   4
loop_
 _symmetry_equiv_pos_site_id
 _symmetry_equiv_pos_as_xyz
  1  'x, y, z'
loop_
 _atom_site_type_symbol
 _atom_site_label
 _atom_site_symmetry_multiplicity
 _atom_site_fract_x
 _atom_site_fract_y
 _atom_site_fract_z
 _atom_site_occupancy
  K  K0  1  0.25239604  0.75065049  0.00077276  1
  K  K1  1  0.74760415  0.25065049  0.49922728  1
  K  K2  1  0.74760396  0.24934951  -0.00077277  1
  K  K3  1  0.25239585  0.74934951  0.50077272  1
  I  I4  1  0.24724830  0.25004309  -0.00049860  1
  I  I5  1  0.75275165  0.75004309  0.50049868  1
  I  I6  1  0.75275170  0.74995691  0.00049860  1
  I  I7  1  0.24724834  0.24995691  0.49950132  1
