# generated using pymatgen
data_KI
_symmetry_space_group_name_H-M   'P 1'
_cell_length_a   9.75542048
_cell_length_b   4.53380033
_cell_length_c   8.45579489
_cell_angle_alpha   90.00015521
_cell_angle_beta   89.99997315
_cell_angle_gamma   89.99973659
_symmetry_Int_Tables_number   1
_chemical_formula_structural   KI
_chemical_formula_sum   'K4 I4'
_cell_volume   373.99243998
_cell_formula_units_Z   4
loop_
 _symmetry_equiv_pos_site_id
 _symmetry_equiv_pos_as_xyz
  1  'x, y, z'
loop_
 _atom_site_type_symbol
 _atom_site_label
 _atom_site_symmetry_multiplicity
 _atom_site_fract_x
 _atom_site_fract_y
 _atom_site_fract_z
 _atom_site_occupancy
  K  K0  1  0.12740708  -0.00194809  -0.03073711  1
  K  K1  1  0.62740659  0.00195164  -0.03073728  1
  K  K2  1  0.87259326  0.00195036  0.46926188  1
  K  K3  1  0.37259340  -0.00194994  0.46926217  1
  I  I4  1  0.12267069  0.49837687  0.63633717  1
  I  I5  1  0.62267047  0.50162149  0.63633675  1
  I  I6  1  0.87732933  0.50162138  0.13633698  1
  I  I7  1  0.37732918  0.49837630  0.13633719  1
