# generated using pymatgen
data_LiBr
_symmetry_space_group_name_H-M   'P 1'
_cell_length_a   10.63072178
_cell_length_b   10.63072115
_cell_length_c   11.40701749
_cell_angle_alpha   90.00247719
_cell_angle_beta   89.99752595
_cell_angle_gamma   120.00614954
_symmetry_Int_Tables_number   1
_chemical_formula_structural   LiBr
_chemical_formula_sum   'Li18 Br18'
_cell_volume   1116.35237826
_cell_formula_units_Z   18
loop_
 _symmetry_equiv_pos_site_id
 _symmetry_equiv_pos_as_xyz
  1  'x, y, z'
loop_
 _atom_site_type_symbol
 _atom_site_label
 _atom_site_symmetry_multiplicity
 _atom_site_fract_x
 _atom_site_fract_y
 _atom_site_fract_z
 _atom_site_occupancy
  Li  Li0  1  0.58100816  0.91322557  0.74526642  1
  Li  Li1  1  0.58101723  0.66778126  0.24527124  1
  Li  Li2  1  0.42010704  0.08565781  0.91193311  1
  Li  Li3  1  0.66555358  0.57990436  0.91192961  1
  Li  Li4  1  0.75342969  0.00111336  0.07859646  1
  Li  Li5  1  0.08676320  0.66777968  0.74526333  1
  Li  Li6  1  0.66555235  0.08564953  0.41193788  1
  Li  Li7  1  0.42009632  0.33444633  0.41192993  1
  Li  Li8  1  0.33221865  0.41898341  0.74527174  1
  Li  Li9  1  0.33222020  0.91323725  0.24526318  1
  Li  Li10  1  0.91434213  0.57989295  0.41193338  1
  Li  Li11  1  0.91435022  0.33444811  0.91193810  1
  Li  Li12  1  -0.00111503  0.75231622  0.07860451  1
  Li  Li13  1  -0.00111324  0.24657000  0.57859679  1
  Li  Li14  1  0.08677405  0.41899161  0.24526685  1
  Li  Li15  1  0.75344077  0.75232457  0.57859976  1
  Li  Li16  1  0.24767557  0.24655958  0.07860003  1
  Li  Li17  1  0.24768313  0.00111465  0.57860466  1
  Br  Br18  1  0.66749066  0.56822998  0.41134802  1
  Br  Br19  1  0.66748594  0.09925898  0.91137827  1
  Br  Br20  1  0.76510302  -0.00082422  0.57801477  1
  Br  Br21  1  0.23405373  0.23487565  0.57803035  1
  Br  Br22  1  0.09845776  0.43261318  0.74469645  1
  Br  Br23  1  0.43179118  0.09927982  0.41136323  1
  Br  Br24  1  0.23407420  -0.00081937  0.07804510  1
  Br  Br25  1  0.76512461  0.76594688  0.07802974  1
  Br  Br26  1  0.90074138  0.33251437  0.41137900  1
  Br  Br27  1  0.90071989  0.56820875  0.91136283  1
  Br  Br28  1  0.00082389  0.23489684  0.07801514  1
  Br  Br29  1  0.00081918  0.76592531  0.57804556  1
  Br  Br30  1  0.56740754  0.66584740  0.74471145  1
  Br  Br31  1  0.56738678  0.90154213  0.24469652  1
  Br  Br32  1  0.43177003  0.33250969  0.91134835  1
  Br  Br33  1  0.09843632  0.66584269  0.24468151  1
  Br  Br34  1  0.33415738  0.90156336  0.74468125  1
  Br  Br35  1  0.33415246  0.43259232  0.24471211  1
