# generated using pymatgen
data_LiBr
_symmetry_space_group_name_H-M   'P 1'
_cell_length_a   15.04761812
_cell_length_b   15.04761483
_cell_length_c   4.77391568
_cell_angle_alpha   90.01621332
_cell_angle_beta   89.98380669
_cell_angle_gamma   120.05666223
_symmetry_Int_Tables_number   1
_chemical_formula_structural   LiBr
_chemical_formula_sum   'Li18 Br18'
_cell_volume   935.60498974
_cell_formula_units_Z   18
loop_
 _symmetry_equiv_pos_site_id
 _symmetry_equiv_pos_as_xyz
  1  'x, y, z'
loop_
 _atom_site_type_symbol
 _atom_site_label
 _atom_site_symmetry_multiplicity
 _atom_site_fract_x
 _atom_site_fract_y
 _atom_site_fract_z
 _atom_site_occupancy
  Li  Li0  1  0.40287393  0.13376574  0.80627319  1
  Li  Li1  1  0.40286492  0.26906175  0.30628362  1
  Li  Li2  1  0.19979433  0.26384279  0.97244272  1
  Li  Li3  1  0.06405697  0.80011600  0.97213355  1
  Li  Li4  1  0.53282115  0.60294223  0.13843894  1
  Li  Li5  1  0.86631720  0.26916613  0.80596926  1
  Li  Li6  1  0.06416396  0.26383378  0.47246732  1
  Li  Li7  1  0.19988312  0.93594250  0.47213435  1
  Li  Li8  1  0.73093737  0.59713237  0.80628113  1
  Li  Li9  1  0.73083328  0.13368432  0.30596883  1
  Li  Li10  1  0.73616024  0.80020610  0.47243620  1
  Li  Li11  1  0.73617004  0.93583813  0.97246306  1
  Li  Li12  1  0.39725568  0.92994957  0.13876279  1
  Li  Li13  1  0.39705796  0.46717763  0.63844077  1
  Li  Li14  1  0.86623457  0.59712587  0.30627267  1
  Li  Li15  1  0.53283212  0.92992747  0.63878584  1
  Li  Li16  1  0.07006975  0.46716602  0.13879086  1
  Li  Li17  1  0.07005068  0.60274377  0.63876615  1
  Br  Br18  1  0.87079279  0.32954734  0.29991057  1
  Br  Br19  1  0.87070074  0.54126109  0.80016650  1
  Br  Br20  1  0.00386160  0.79602665  0.46600148  1
  Br  Br21  1  0.79212379  -0.00388606  0.46635977  1
  Br  Br22  1  0.33705772  0.87415373  0.63266231  1
  Br  Br23  1  0.67046561  0.54134190  0.30025484  1
  Br  Br24  1  0.79218032  0.79609780  0.96624718  1
  Br  Br25  1  0.00388660  0.20787651  0.96636302  1
  Br  Br26  1  0.45873838  0.12929938  0.30016725  1
  Br  Br27  1  0.45865836  0.32953497  0.80025637  1
  Br  Br28  1  0.20397283  -0.00386209  0.96600237  1
  Br  Br29  1  0.20390229  0.20782082  0.46625178  1
  Br  Br30  1  0.12590496  0.46295569  0.63260866  1
  Br  Br31  1  0.12584544  0.66294108  0.13266514  1
  Br  Br32  1  0.67045354  0.12920800  0.79991026  1
  Br  Br33  1  0.33696191  0.46292844  0.13234329  1
  Br  Br34  1  0.53707176  0.66303741  0.63234247  1
  Br  Br35  1  0.53704408  0.87409518  0.13260461  1
