# generated using pymatgen
data_KI
_symmetry_space_group_name_H-M   'P 1'
_cell_length_a   5.08723372
_cell_length_b   14.36346919
_cell_length_c   7.17650985
_cell_angle_alpha   89.99979585
_cell_angle_beta   135.08994482
_cell_angle_gamma   90.00094152
_symmetry_Int_Tables_number   1
_chemical_formula_structural   KI
_chemical_formula_sum   'K4 I4'
_cell_volume   370.21710774
_cell_formula_units_Z   4
loop_
 _symmetry_equiv_pos_site_id
 _symmetry_equiv_pos_as_xyz
  1  'x, y, z'
loop_
 _atom_site_type_symbol
 _atom_site_label
 _atom_site_symmetry_multiplicity
 _atom_site_fract_x
 _atom_site_fract_y
 _atom_site_fract_z
 _atom_site_occupancy
  K  K0  1  -0.00503699  0.87498666  0.74111125  1
  K  K1  1  0.00503865  0.37498528  0.75888953  1
  K  K2  1  0.00503712  0.12501334  0.25888876  1
  K  K3  1  -0.00503874  0.62501472  0.24111046  1
  I  I4  1  0.00546545  0.37492458  0.25856497  1
  I  I5  1  -0.00546491  0.87492512  0.24143614  1
  I  I6  1  -0.00546555  0.62507537  0.74143503  1
  I  I7  1  0.00546497  0.12507493  0.75856387  1
