# generated using pymatgen
data_LiI
_symmetry_space_group_name_H-M   'P 1'
_cell_length_a   16.19923004
_cell_length_b   6.88780308
_cell_length_c   10.65620470
_cell_angle_alpha   89.99997346
_cell_angle_beta   90.00021226
_cell_angle_gamma   90.00006320
_symmetry_Int_Tables_number   1
_chemical_formula_structural   LiI
_chemical_formula_sum   'Li16 I16'
_cell_volume   1188.98848694
_cell_formula_units_Z   16
loop_
 _symmetry_equiv_pos_site_id
 _symmetry_equiv_pos_as_xyz
  1  'x, y, z'
loop_
 _atom_site_type_symbol
 _atom_site_label
 _atom_site_symmetry_multiplicity
 _atom_site_fract_x
 _atom_site_fract_y
 _atom_site_fract_z
 _atom_site_occupancy
  Li  Li0  1  0.31328235  0.83929440  0.12603912  1
  Li  Li1  1  0.18671745  0.16070662  0.62603965  1
  Li  Li2  1  0.68671720  0.83929287  0.12603976  1
  Li  Li3  1  0.68671891  0.66070430  0.62603950  1
  Li  Li4  1  0.18671892  0.33929446  0.12603976  1
  Li  Li5  1  0.68671852  0.33929480  0.37396127  1
  Li  Li6  1  0.81328204  0.33929355  0.12603902  1
  Li  Li7  1  0.81328149  0.66070586  0.87396028  1
  Li  Li8  1  0.31328250  0.66070705  0.62603919  1
  Li  Li9  1  0.18671872  0.66070577  0.87396099  1
  Li  Li10  1  0.31328203  0.33929415  0.37396000  1
  Li  Li11  1  0.31328238  0.16070634  0.87396041  1
  Li  Li12  1  0.18671720  0.83929314  0.37396068  1
  Li  Li13  1  0.81328048  0.16070437  0.62603910  1
  Li  Li14  1  0.68671822  0.16070563  0.87396105  1
  Li  Li15  1  0.81328146  0.83929446  0.37396022  1
  I  I16  1  0.14597306  0.26377906  0.87430419  1
  I  I17  1  0.35402705  0.73622123  0.37430450  1
  I  I18  1  0.85402724  0.26377980  0.87430385  1
  I  I19  1  0.85402734  0.23622093  0.37430532  1
  I  I20  1  0.35402824  0.76378014  0.87430465  1
  I  I21  1  0.85402761  0.76377945  0.62569631  1
  I  I22  1  0.64597256  0.76377873  0.87430319  1
  I  I23  1  0.64597298  0.23622083  0.12569533  1
  I  I24  1  0.14597252  0.23622037  0.37430302  1
  I  I25  1  0.35402829  0.23622116  0.12569647  1
  I  I26  1  0.14597277  0.76377945  0.62569588  1
  I  I27  1  0.14597278  0.73622060  0.12569495  1
  I  I28  1  0.35402708  0.26377989  0.62569617  1
  I  I29  1  0.64597208  0.73622067  0.37430405  1
  I  I30  1  0.85402679  0.73622083  0.12569655  1
  I  I31  1  0.64597171  0.26377911  0.62569555  1
