# generated using pymatgen
data_NaI
_symmetry_space_group_name_H-M   'P 1'
_cell_length_a   4.54257198
_cell_length_b   15.56645838
_cell_length_c   4.47593523
_cell_angle_alpha   90.01905749
_cell_angle_beta   90.00000104
_cell_angle_gamma   90.00020947
_symmetry_Int_Tables_number   1
_chemical_formula_structural   NaI
_chemical_formula_sum   'Na4 I4'
_cell_volume   316.50122973
_cell_formula_units_Z   4
loop_
 _symmetry_equiv_pos_site_id
 _symmetry_equiv_pos_as_xyz
  1  'x, y, z'
loop_
 _atom_site_type_symbol
 _atom_site_label
 _atom_site_symmetry_multiplicity
 _atom_site_fract_x
 _atom_site_fract_y
 _atom_site_fract_z
 _atom_site_occupancy
  Na  Na0  1  0.75383516  0.90751765  0.55691822  1
  Na  Na1  1  0.25383424  0.59248138  0.55705989  1
  Na  Na2  1  0.24616420  0.09248224  0.05706197  1
  Na  Na3  1  0.74616584  0.40751740  0.05691773  1
  I  I4  1  0.25333388  0.88693472  0.05731207  1
  I  I5  1  0.75332749  0.61306612  0.05751361  1
  I  I6  1  0.74667080  0.11306649  0.55751645  1
  I  I7  1  0.24666839  0.38693400  0.55731235  1
