# generated using pymatgen
data_LiBr
_symmetry_space_group_name_H-M   'P 1'
_cell_length_a   11.53128709
_cell_length_b   11.53129243
_cell_length_c   7.92173304
_cell_angle_alpha   89.99677080
_cell_angle_beta   90.00318872
_cell_angle_gamma   119.99127661
_symmetry_Int_Tables_number   1
_chemical_formula_structural   LiBr
_chemical_formula_sum   'Li18 Br18'
_cell_volume   912.31491108
_cell_formula_units_Z   18
loop_
 _symmetry_equiv_pos_site_id
 _symmetry_equiv_pos_as_xyz
  1  'x, y, z'
loop_
 _atom_site_type_symbol
 _atom_site_label
 _atom_site_symmetry_multiplicity
 _atom_site_fract_x
 _atom_site_fract_y
 _atom_site_fract_z
 _atom_site_occupancy
  Li  Li0  1  0.20163157  0.79502246  0.14324391  1
  Li  Li1  1  0.20166583  0.40664165  0.64323431  1
  Li  Li2  1  0.53823853  0.46496644  0.30985936  1
  Li  Li3  1  0.92671546  0.46178192  0.30985747  1
  Li  Li4  1  0.87167221  0.73999904  0.47645100  1
  Li  Li5  1  0.20492749  0.40663446  0.14325096  1
  Li  Li6  1  0.92671363  0.46496393  0.80989526  1
  Li  Li7  1  0.53821731  0.07327939  0.80985651  1
  Li  Li8  1  0.59335324  0.79833017  0.14323324  1
  Li  Li9  1  0.59335644  0.79506916  0.64324804  1
  Li  Li10  1  0.53503128  0.46176131  0.80986202  1
  Li  Li11  1  0.53503671  0.07328851  0.30989560  1
  Li  Li12  1  0.26001833  0.13173062  0.47646190  1
  Li  Li13  1  0.26001805  0.12832886  -0.02354066  1
  Li  Li14  1  0.20497619  0.79836567  0.64324258  1
  Li  Li15  1  0.87170584  0.13171985  -0.02354918  1
  Li  Li16  1  0.86828299  0.12829142  0.47644540  1
  Li  Li17  1  0.86827762  0.73999379  -0.02354625  1
  Br  Br18  1  0.42564045  0.21429018  0.23728823  1
  Br  Br19  1  0.42562688  0.21130795  0.73730524  1
  Br  Br20  1  0.11896334  0.24088947  0.40391174  1
  Br  Br21  1  0.12196156  0.88104913  0.40394111  1
  Br  Br22  1  0.45227286  0.54459324  0.57071453  1
  Br  Br23  1  0.78570292  0.21130279  0.23731659  1
  Br  Br24  1  0.12196406  0.24088979  0.90391933  1
  Br  Br25  1  0.11895097  0.87803750  0.90394116  1
  Br  Br26  1  0.78869122  0.57437526  0.23730541  1
  Br  Br27  1  0.78869529  0.21429508  0.73731480  1
  Br  Br28  1  0.75910950  0.88103643  0.90391272  1
  Br  Br29  1  0.75910882  0.87803650  0.40391705  1
  Br  Br30  1  0.45539700  0.90766793  0.57071002  1
  Br  Br31  1  0.45540853  0.54772870  0.07071635  1
  Br  Br32  1  0.78570799  0.57435943  0.73728868  1
  Br  Br33  1  0.45227948  0.90764867  0.07063763  1
  Br  Br34  1  0.09234939  0.54771989  0.57064137  1
  Br  Br35  1  0.09233103  0.54460340  0.07071138  1
