# generated using pymatgen
data_LiBr
_symmetry_space_group_name_H-M   'P 1'
_cell_length_a   14.46168554
_cell_length_b   14.43591080
_cell_length_c   3.85787625
_cell_angle_alpha   89.99989788
_cell_angle_beta   90.00022522
_cell_angle_gamma   90.00002172
_symmetry_Int_Tables_number   1
_chemical_formula_structural   LiBr
_chemical_formula_sum   'Li16 Br16'
_cell_volume   805.39957488
_cell_formula_units_Z   16
loop_
 _symmetry_equiv_pos_site_id
 _symmetry_equiv_pos_as_xyz
  1  'x, y, z'
loop_
 _atom_site_type_symbol
 _atom_site_label
 _atom_site_symmetry_multiplicity
 _atom_site_fract_x
 _atom_site_fract_y
 _atom_site_fract_z
 _atom_site_occupancy
  Li  Li0  1  0.33376592  0.92120909  0.62465186  1
  Li  Li1  1  0.66623360  0.07879163  0.62464722  1
  Li  Li2  1  0.91623460  0.17120538  0.87464951  1
  Li  Li3  1  0.16623442  0.07879145  0.12465121  1
  Li  Li4  1  0.41623412  0.17120884  0.37465019  1
  Li  Li5  1  0.58376636  0.32879195  0.87465321  1
  Li  Li6  1  0.83376608  0.92120886  0.12465257  1
  Li  Li7  1  0.41623331  0.67121095  0.87465493  1
  Li  Li8  1  0.58376434  0.82879269  0.37464843  1
  Li  Li9  1  0.83376627  0.42120721  0.62465614  1
  Li  Li10  1  0.16623128  0.57878508  0.62465493  1
  Li  Li11  1  0.91623244  0.67120947  0.37465132  1
  Li  Li12  1  0.08376624  0.32879008  0.37465358  1
  Li  Li13  1  0.08376799  0.82878622  0.87465443  1
  Li  Li14  1  0.33376890  0.42121531  0.12465934  1
  Li  Li15  1  0.66623434  0.57879149  0.12464882  1
  Br  Br16  1  0.83247445  0.08799824  0.37363407  1
  Br  Br17  1  0.16752649  0.91200177  0.37362938  1
  Br  Br18  1  0.41752519  0.33799944  0.62363173  1
  Br  Br19  1  0.66752714  0.91200158  0.87363018  1
  Br  Br20  1  0.91752611  0.33799834  0.12363456  1
  Br  Br21  1  0.08247472  0.16200177  0.62363377  1
  Br  Br22  1  0.33247411  0.08799925  0.87363417  1
  Br  Br23  1  0.91752482  0.83799947  0.62363169  1
  Br  Br24  1  0.08247288  0.66200058  0.12363442  1
  Br  Br25  1  0.33247353  0.58799842  0.37363846  1
  Br  Br26  1  0.66752652  0.41200148  0.37363291  1
  Br  Br27  1  0.41752663  0.83799855  0.12363345  1
  Br  Br28  1  0.58247305  0.16200252  0.12363081  1
  Br  Br29  1  0.58247267  0.66200265  0.62363395  1
  Br  Br30  1  0.83247464  0.58799852  0.87363484  1
  Br  Br31  1  0.16752682  0.41200172  0.87363435  1
