# generated using pymatgen
data_LiBr
_symmetry_space_group_name_H-M   'P 1'
_cell_length_a   4.06086296
_cell_length_b   10.84575665
_cell_length_c   5.15963133
_cell_angle_alpha   90.00007112
_cell_angle_beta   51.45318551
_cell_angle_gamma   90.00000872
_symmetry_Int_Tables_number   1
_chemical_formula_structural   LiBr
_chemical_formula_sum   'Li4 Br4'
_cell_volume   177.72917934
_cell_formula_units_Z   4
loop_
 _symmetry_equiv_pos_site_id
 _symmetry_equiv_pos_as_xyz
  1  'x, y, z'
loop_
 _atom_site_type_symbol
 _atom_site_label
 _atom_site_symmetry_multiplicity
 _atom_site_fract_x
 _atom_site_fract_y
 _atom_site_fract_z
 _atom_site_occupancy
  Li  Li0  1  0.62325091  0.62514792  0.18877209  1
  Li  Li1  1  0.37674727  0.12514814  0.31123229  1
  Li  Li2  1  0.37674905  0.37485196  0.81122805  1
  Li  Li3  1  0.62325278  0.87485198  0.68876753  1
  Br  Br4  1  0.44187573  0.87393543  0.27891088  1
  Br  Br5  1  0.55812385  0.37393534  0.22108726  1
  Br  Br6  1  0.55812407  0.12606465  0.72108913  1
  Br  Br7  1  0.44187632  0.62606459  0.77891276  1
