# generated using pymatgen
data_LiBr
_symmetry_space_group_name_H-M   'P 1'
_cell_length_a   7.82423694
_cell_length_b   3.91677057
_cell_length_c   5.40923139
_cell_angle_alpha   89.99999949
_cell_angle_beta   89.99999964
_cell_angle_gamma   89.99989954
_symmetry_Int_Tables_number   1
_chemical_formula_structural   LiBr
_chemical_formula_sum   'Li4 Br4'
_cell_volume   165.76990369
_cell_formula_units_Z   4
loop_
 _symmetry_equiv_pos_site_id
 _symmetry_equiv_pos_as_xyz
  1  'x, y, z'
loop_
 _atom_site_type_symbol
 _atom_site_label
 _atom_site_symmetry_multiplicity
 _atom_site_fract_x
 _atom_site_fract_y
 _atom_site_fract_z
 _atom_site_occupancy
  Li  Li0  1  0.37297809  0.74862261  0.49963066  1
  Li  Li1  1  0.62702255  0.24862003  0.00036889  1
  Li  Li2  1  0.12702235  0.25137773  -0.00036882  1
  Li  Li3  1  0.87297810  0.75137900  0.50036918  1
  Br  Br4  1  0.62448767  0.24854543  0.49963988  1
  Br  Br5  1  0.37551163  0.74854596  0.00036008  1
  Br  Br6  1  0.87551157  0.75145413  -0.00036003  1
  Br  Br7  1  0.12448804  0.25145509  0.50036015  1
