# generated using pymatgen
data_LiBr
_symmetry_space_group_name_H-M   'P 1'
_cell_length_a   5.60404498
_cell_length_b   5.60449118
_cell_length_c   12.91859105
_cell_angle_alpha   90.00071147
_cell_angle_beta   89.99992640
_cell_angle_gamma   89.96859507
_symmetry_Int_Tables_number   1
_chemical_formula_structural   LiBr
_chemical_formula_sum   'Li8 Br8'
_cell_volume   405.74472967
_cell_formula_units_Z   8
loop_
 _symmetry_equiv_pos_site_id
 _symmetry_equiv_pos_as_xyz
  1  'x, y, z'
loop_
 _atom_site_type_symbol
 _atom_site_label
 _atom_site_symmetry_multiplicity
 _atom_site_fract_x
 _atom_site_fract_y
 _atom_site_fract_z
 _atom_site_occupancy
  Li  Li0  1  0.50001982  0.99060015  0.62476845  1
  Li  Li1  1  0.99058123  0.50003693  0.37523418  1
  Li  Li2  1  0.00027944  0.50940032  0.12520424  1
  Li  Li3  1  0.00941806  0.49996249  0.87521781  1
  Li  Li4  1  -0.00027491  0.49060046  0.62519333  1
  Li  Li5  1  0.49995540  0.00943375  0.12478224  1
  Li  Li6  1  0.49060901  -0.00029097  0.37480819  1
  Li  Li7  1  0.50941778  0.00026468  0.87479192  1
  Br  Br8  1  0.24627160  0.74510756  0.50003173  1
  Br  Br9  1  0.74511690  0.24627260  0.49996662  1
  Br  Br10  1  0.74621052  0.75479252  0.24992823  1
  Br  Br11  1  0.25488822  0.75373013  -0.00003187  1
  Br  Br12  1  0.25378273  0.24520299  0.74995773  1
  Br  Br13  1  0.75372958  0.25489362  0.00003279  1
  Br  Br14  1  0.24521579  0.25377702  0.25005118  1
  Br  Br15  1  0.75477884  0.74621574  0.75006320  1
