# generated using pymatgen
data_LiBr
_symmetry_space_group_name_H-M   'P 1'
_cell_length_a   3.86721460
_cell_length_b   6.64522936
_cell_length_c   6.45709064
_cell_angle_alpha   90.00004702
_cell_angle_beta   90.00001787
_cell_angle_gamma   89.99995707
_symmetry_Int_Tables_number   1
_chemical_formula_structural   LiBr
_chemical_formula_sum   'Li4 Br4'
_cell_volume   165.93772452
_cell_formula_units_Z   4
loop_
 _symmetry_equiv_pos_site_id
 _symmetry_equiv_pos_as_xyz
  1  'x, y, z'
loop_
 _atom_site_type_symbol
 _atom_site_label
 _atom_site_symmetry_multiplicity
 _atom_site_fract_x
 _atom_site_fract_y
 _atom_site_fract_z
 _atom_site_occupancy
  Li  Li0  1  0.75040843  0.49982388  0.49895941  1
  Li  Li1  1  0.24959092  -0.00017382  0.00104353  1
  Li  Li2  1  0.74959242  0.50017373  -0.00104451  1
  Li  Li3  1  0.25041102  0.00017586  0.50103880  1
  Br  Br4  1  0.24925576  0.33265074  0.24957475  1
  Br  Br5  1  0.75074405  0.83264936  0.25042734  1
  Br  Br6  1  0.25074269  0.66735080  0.74957403  1
  Br  Br7  1  0.74925471  0.16734943  0.75042665  1
