# generated using pymatgen
data_LiBr
_symmetry_space_group_name_H-M   'P 1'
_cell_length_a   7.31486840
_cell_length_b   7.31490226
_cell_length_c   6.58587955
_cell_angle_alpha   89.99990697
_cell_angle_beta   90.00010823
_cell_angle_gamma   119.99909277
_symmetry_Int_Tables_number   1
_chemical_formula_structural   LiBr
_chemical_formula_sum   'Li6 Br6'
_cell_volume   305.18517284
_cell_formula_units_Z   6
loop_
 _symmetry_equiv_pos_site_id
 _symmetry_equiv_pos_as_xyz
  1  'x, y, z'
loop_
 _atom_site_type_symbol
 _atom_site_label
 _atom_site_symmetry_multiplicity
 _atom_site_fract_x
 _atom_site_fract_y
 _atom_site_fract_z
 _atom_site_occupancy
  Li  Li0  1  0.33401606  0.33247022  0.95700073  1
  Li  Li1  1  0.00155812  0.33402716  0.45700218  1
  Li  Li2  1  -0.00155844  0.66597335  0.95700168  1
  Li  Li3  1  0.33247633  -0.00155058  0.45699769  1
  Li  Li4  1  0.66752369  0.00155019  0.95699849  1
  Li  Li5  1  0.66598444  0.66753029  0.45700133  1
  Br  Br6  1  0.33408915  0.33282603  0.57165502  1
  Br  Br7  1  0.00126687  0.33410305  0.07165744  1
  Br  Br8  1  -0.00126718  0.66589705  0.57165707  1
  Br  Br9  1  0.33283793  -0.00125620  0.07165449  1
  Br  Br10  1  0.66716182  0.00125546  0.57165491  1
  Br  Br11  1  0.66591121  0.66717399  0.07165467  1
