# generated using pymatgen
data_LiBr
_symmetry_space_group_name_H-M   'P 1'
_cell_length_a   4.02783368
_cell_length_b   7.40945813
_cell_length_c   6.75853165
_cell_angle_alpha   90.00195125
_cell_angle_beta   96.19711231
_cell_angle_gamma   90.00136130
_symmetry_Int_Tables_number   1
_chemical_formula_structural   LiBr
_chemical_formula_sum   'Li4 Br4'
_cell_volume   200.52339245
_cell_formula_units_Z   4
loop_
 _symmetry_equiv_pos_site_id
 _symmetry_equiv_pos_as_xyz
  1  'x, y, z'
loop_
 _atom_site_type_symbol
 _atom_site_label
 _atom_site_symmetry_multiplicity
 _atom_site_fract_x
 _atom_site_fract_y
 _atom_site_fract_z
 _atom_site_occupancy
  Li  Li0  1  0.04007917  0.83075736  0.02886486  1
  Li  Li1  1  0.54008144  0.33075763  0.02886545  1
  Li  Li2  1  0.04004582  0.16923397  0.52886362  1
  Li  Li3  1  0.54004758  0.66923393  0.52886400  1
  Br  Br4  1  0.05871243  0.84444450  0.65383652  1
  Br  Br5  1  0.55871168  0.34444486  0.65383689  1
  Br  Br6  1  0.05872695  0.15556370  0.15383472  1
  Br  Br7  1  0.55872750  0.65556405  0.15383542  1
