# generated using pymatgen
data_LiI
_symmetry_space_group_name_H-M   'P 1'
_cell_length_a   7.90169233
_cell_length_b   7.90023201
_cell_length_c   4.24708216
_cell_angle_alpha   90.00019758
_cell_angle_beta   89.99989435
_cell_angle_gamma   89.99857037
_symmetry_Int_Tables_number   1
_chemical_formula_structural   LiI
_chemical_formula_sum   'Li4 I4'
_cell_volume   265.12496471
_cell_formula_units_Z   4
loop_
 _symmetry_equiv_pos_site_id
 _symmetry_equiv_pos_as_xyz
  1  'x, y, z'
loop_
 _atom_site_type_symbol
 _atom_site_label
 _atom_site_symmetry_multiplicity
 _atom_site_fract_x
 _atom_site_fract_y
 _atom_site_fract_z
 _atom_site_occupancy
  Li  Li0  1  0.83635658  0.66366896  0.42222522  1
  Li  Li1  1  0.66366162  0.16362169  0.67224621  1
  Li  Li2  1  0.16364269  0.33633039  0.92222308  1
  Li  Li3  1  0.33633915  0.83637996  0.17224096  1
  I  I4  1  0.82950648  0.32940458  0.17308648  1
  I  I5  1  0.32944873  0.17053668  0.42306864  1
  I  I6  1  0.17049398  0.67059515  0.67308235  1
  I  I7  1  0.67055076  0.82946259  0.92306579  1
