# generated using pymatgen
data_LiBr
_symmetry_space_group_name_H-M   'P 1'
_cell_length_a   3.89881328
_cell_length_b   3.90006081
_cell_length_c   10.99131517
_cell_angle_alpha   90.00457340
_cell_angle_beta   89.99681971
_cell_angle_gamma   89.98631821
_symmetry_Int_Tables_number   1
_chemical_formula_structural   LiBr
_chemical_formula_sum   'Li4 Br4'
_cell_volume   167.12963379
_cell_formula_units_Z   4
loop_
 _symmetry_equiv_pos_site_id
 _symmetry_equiv_pos_as_xyz
  1  'x, y, z'
loop_
 _atom_site_type_symbol
 _atom_site_label
 _atom_site_symmetry_multiplicity
 _atom_site_fract_x
 _atom_site_fract_y
 _atom_site_fract_z
 _atom_site_occupancy
  Li  Li0  1  -0.00292579  0.49858446  0.78085928  1
  Li  Li1  1  0.49859146  0.00293898  0.03085912  1
  Li  Li2  1  0.00292696  0.50141495  0.28085945  1
  Li  Li3  1  0.50140712  -0.00293712  0.53085780  1
  Br  Br4  1  0.49984401  -0.00033639  0.78032926  1
  Br  Br5  1  -0.00041803  0.50014108  0.03033039  1
  Br  Br6  1  0.50015687  0.00033655  0.28032868  1
  Br  Br7  1  0.00041740  0.49985749  0.53032925  1
