# generated using pymatgen
data_LiI
_symmetry_space_group_name_H-M   'P 1'
_cell_length_a   14.14364606
_cell_length_b   14.14360434
_cell_length_c   7.93235710
_cell_angle_alpha   89.99945494
_cell_angle_beta   89.99949361
_cell_angle_gamma   89.99999965
_symmetry_Int_Tables_number   1
_chemical_formula_structural   LiI
_chemical_formula_sum   'Li16 I16'
_cell_volume   1586.80563995
_cell_formula_units_Z   16
loop_
 _symmetry_equiv_pos_site_id
 _symmetry_equiv_pos_as_xyz
  1  'x, y, z'
loop_
 _atom_site_type_symbol
 _atom_site_label
 _atom_site_symmetry_multiplicity
 _atom_site_fract_x
 _atom_site_fract_y
 _atom_site_fract_z
 _atom_site_occupancy
  Li  Li0  1  0.11776798  0.61746396  0.49966780  1
  Li  Li1  1  0.38253588  0.11776825  0.49966863  1
  Li  Li2  1  0.88223218  0.61746388  0.50033176  1
  Li  Li3  1  0.88253615  0.61776818  -0.00033110  1
  Li  Li4  1  0.38223188  0.11746398  0.00033157  1
  Li  Li5  1  0.11746393  0.38223210  -0.00033113  1
  Li  Li6  1  0.61776776  0.11746391  -0.00033232  1
  Li  Li7  1  0.38223204  0.88253580  -0.00033013  1
  Li  Li8  1  0.88253617  0.38223180  0.00033279  1
  Li  Li9  1  0.61776789  0.88253587  0.00033057  1
  Li  Li10  1  0.11746410  0.61776819  0.00032960  1
  Li  Li11  1  0.88223224  0.38253564  0.49967028  1
  Li  Li12  1  0.61746392  0.88223210  0.49966879  1
  Li  Li13  1  0.38253625  0.88223214  0.50033256  1
  Li  Li14  1  0.11776798  0.38253595  0.50033093  1
  Li  Li15  1  0.61746378  0.11776811  0.50032938  1
  I  I16  1  0.00012665  0.29447373  0.25021351  1
  I  I17  1  0.70552593  0.00012708  0.25020707  1
  I  I18  1  -0.00012650  0.29447399  0.74979215  1
  I  I19  1  0.20552600  0.50012692  0.75020738  1
  I  I20  1  0.49987355  0.79447420  0.24979241  1
  I  I21  1  0.79447422  0.49987288  0.75021459  1
  I  I22  1  0.50012643  0.79447370  0.75021350  1
  I  I23  1  0.49987299  0.20552576  0.75020688  1
  I  I24  1  0.20552590  0.49987325  0.24978651  1
  I  I25  1  0.50012677  0.20552648  0.24978624  1
  I  I26  1  0.79447410  0.50012689  0.24979345  1
  I  I27  1  -0.00012701  0.70552588  0.25020705  1
  I  I28  1  0.29447402  -0.00012703  0.25021407  1
  I  I29  1  0.70552583  -0.00012689  0.74978590  1
  I  I30  1  0.00012699  0.70552635  0.74978623  1
  I  I31  1  0.29447400  0.00012696  0.74979309  1
