# generated using pymatgen
data_LiBr
_symmetry_space_group_name_H-M   'P 1'
_cell_length_a   11.52982621
_cell_length_b   11.52982564
_cell_length_c   7.93404141
_cell_angle_alpha   90.00126667
_cell_angle_beta   89.99868075
_cell_angle_gamma   120.00242856
_symmetry_Int_Tables_number   1
_chemical_formula_structural   LiBr
_chemical_formula_sum   'Li18 Br18'
_cell_volume   913.39781146
_cell_formula_units_Z   18
loop_
 _symmetry_equiv_pos_site_id
 _symmetry_equiv_pos_as_xyz
  1  'x, y, z'
loop_
 _atom_site_type_symbol
 _atom_site_label
 _atom_site_symmetry_multiplicity
 _atom_site_fract_x
 _atom_site_fract_y
 _atom_site_fract_z
 _atom_site_occupancy
  Li  Li0  1  0.25998841  0.12985966  0.74875816  1
  Li  Li1  1  0.25997269  0.13011845  0.24876999  1
  Li  Li2  1  0.20343940  0.40665290  0.91551873  1
  Li  Li3  1  0.20322570  0.79656909  0.91553229  1
  Li  Li4  1  0.53685027  0.46349741  0.08216378  1
  Li  Li5  1  0.87013426  0.13011669  0.74876629  1
  Li  Li6  1  0.20322727  0.40667013  0.41552823  1
  Li  Li7  1  0.20343050  0.79677561  0.41553389  1
  Li  Li8  1  0.86988237  0.74002830  0.74876814  1
  Li  Li9  1  0.86988240  0.12986533  0.24876724  1
  Li  Li10  1  0.59334635  0.79656102  0.41551930  1
  Li  Li11  1  0.59332896  0.79677117  0.91552987  1
  Li  Li12  1  0.53650460  0.07336772  0.08215929  1
  Li  Li13  1  0.53650215  0.46314957  0.58216210  1
  Li  Li14  1  0.87014195  0.74001308  0.24875510  1
  Li  Li15  1  0.53685842  0.07334645  0.58214877  1
  Li  Li16  1  0.92665238  0.46314198  0.08214905  1
  Li  Li17  1  0.92663183  0.46349478  0.58216137  1
  Br  Br18  1  0.45380268  0.90810302  0.84270426  1
  Br  Br19  1  0.45380497  0.54570634  0.34270708  1
  Br  Br20  1  0.42523233  0.21292221  0.00938855  1
  Br  Br21  1  0.78768074  0.57475601  0.00937988  1
  Br  Br22  1  0.75864119  0.87903331  0.17616644  1
  Br  Br23  1  0.09190900  0.54570878  0.84269493  1
  Br  Br24  1  0.78768416  0.21291630  0.50938938  1
  Br  Br25  1  0.42524390  0.21231926  0.50938000  1
  Br  Br26  1  0.45429448  0.54619433  0.84270734  1
  Br  Br27  1  0.45429150  0.90809180  0.34269298  1
  Br  Br28  1  0.78707839  0.57476856  0.50938809  1
  Br  Br29  1  0.78708341  0.21231513  0.00938906  1
  Br  Br30  1  0.12096885  0.87960414  0.17618090  1
  Br  Br31  1  0.12096580  0.24135822  0.67616627  1
  Br  Br32  1  0.09189741  0.54619827  0.34270651  1
  Br  Br33  1  0.75862852  0.87960276  0.67617530  1
  Br  Br34  1  0.12039584  0.24136905  0.17617562  1
  Br  Br35  1  0.12039693  0.87903316  0.67618222  1
