# generated using pymatgen
data_NaI
_symmetry_space_group_name_H-M   'P 1'
_cell_length_a   8.28977038
_cell_length_b   5.31155203
_cell_length_c   8.16976052
_cell_angle_alpha   89.99853745
_cell_angle_beta   90.00161498
_cell_angle_gamma   89.99933343
_symmetry_Int_Tables_number   1
_chemical_formula_structural   NaI
_chemical_formula_sum   'Na4 I4'
_cell_volume   359.72719167
_cell_formula_units_Z   4
loop_
 _symmetry_equiv_pos_site_id
 _symmetry_equiv_pos_as_xyz
  1  'x, y, z'
loop_
 _atom_site_type_symbol
 _atom_site_label
 _atom_site_symmetry_multiplicity
 _atom_site_fract_x
 _atom_site_fract_y
 _atom_site_fract_z
 _atom_site_occupancy
  Na  Na0  1  0.39651870  0.74951805  0.11077061  1
  Na  Na1  1  0.89651866  0.25049207  0.11077042  1
  Na  Na2  1  0.60347825  0.25045901  0.61077049  1
  Na  Na3  1  0.10347835  0.74953610  0.61077083  1
  I  I4  1  0.45299298  0.75034517  0.73650206  1
  I  I5  1  0.95299272  0.24966062  0.73650237  1
  I  I6  1  0.54700997  0.24962955  0.23649881  1
  I  I7  1  0.04701038  0.75035944  0.23649841  1
