# generated using pymatgen
data_LiBr
_symmetry_space_group_name_H-M   'P 1'
_cell_length_a   10.79033788
_cell_length_b   10.79033782
_cell_length_c   8.16907975
_cell_angle_alpha   89.97772192
_cell_angle_beta   90.02239437
_cell_angle_gamma   120.00850270
_symmetry_Int_Tables_number   1
_chemical_formula_structural   LiBr
_chemical_formula_sum   'Li18 Br18'
_cell_volume   823.63841189
_cell_formula_units_Z   18
loop_
 _symmetry_equiv_pos_site_id
 _symmetry_equiv_pos_as_xyz
  1  'x, y, z'
loop_
 _atom_site_type_symbol
 _atom_site_label
 _atom_site_symmetry_multiplicity
 _atom_site_fract_x
 _atom_site_fract_y
 _atom_site_fract_z
 _atom_site_occupancy
  Li  Li0  1  0.41746365  0.47108973  0.22115095  1
  Li  Li1  1  0.41741172  -0.05350997  0.72115371  1
  Li  Li2  1  0.86224365  0.24920275  0.38781741  1
  Li  Li3  1  0.38695937  0.13780603  0.38779151  1
  Li  Li4  1  0.19552703  0.27970946  0.55445757  1
  Li  Li5  1  0.52885756  -0.05362613  0.22112361  1
  Li  Li6  1  0.38683958  0.24925884  0.88781851  1
  Li  Li7  1  0.86219567  0.61304299  0.88779110  1
  Li  Li8  1  0.05350754  0.58258936  0.22115390  1
  Li  Li9  1  0.05362427  0.47113814  0.72112255  1
  Li  Li10  1  0.75079827  0.13775847  0.88781883  1
  Li  Li11  1  0.75074111  0.61315904  0.38781881  1
  Li  Li12  1  0.72017848  0.91592321  0.55448629  1
  Li  Li13  1  0.72029047  0.80447267  0.05445696  1
  Li  Li14  1  0.52891030  0.58253567  0.72114989  1
  Li  Li15  1  0.19557432  0.91586687  0.05448467  1
  Li  Li16  1  0.08413102  0.80442427  0.55448451  1
  Li  Li17  1  0.08407792  0.27982298  0.05448613  1
  Br  Br18  1  0.84006776  0.76504138  0.64808832  1
  Br  Br19  1  0.83995372  0.07486729  0.14813752  1
  Br  Br20  1  0.56829294  0.82660033  0.81475205  1
  Br  Br21  1  0.25842925  0.43165231  0.81472419  1
  Br  Br22  1  0.90168063  0.40823663  0.98139148  1
  Br  Br23  1  0.23501447  0.07490430  0.64805613  1
  Br  Br24  1  0.25846675  0.82671371  0.31480620  1
  Br  Br25  1  0.56834722  0.74157043  0.31472408  1
  Br  Br26  1  0.92513303  0.16004741  0.64813980  1
  Br  Br27  1  0.92509592  0.76498557  0.14805847  1
  Br  Br28  1  0.17340103  0.43170810  0.31475231  1
  Br  Br29  1  0.17328540  0.74153321  0.81480752  1
  Br  Br30  1  0.59180127  0.49338110  0.98147250  1
  Br  Br31  1  0.59176264  0.09831872  0.48139026  1
  Br  Br32  1  0.23495771  0.15993287  0.14808658  1
  Br  Br33  1  0.90162367  0.49326523  0.48141854  1
  Br  Br34  1  0.50673379  0.09837646  0.98141907  1
  Br  Br35  1  0.50662088  0.40820057  0.48147328  1
