# generated using pymatgen
data_NaI
_symmetry_space_group_name_H-M   'P 1'
_cell_length_a   5.74331648
_cell_length_b   13.35540874
_cell_length_c   5.58486941
_cell_angle_alpha   90.00060783
_cell_angle_beta   89.99098597
_cell_angle_gamma   90.01996821
_symmetry_Int_Tables_number   1
_chemical_formula_structural   NaI
_chemical_formula_sum   'Na4 I4'
_cell_volume   428.38368598
_cell_formula_units_Z   4
loop_
 _symmetry_equiv_pos_site_id
 _symmetry_equiv_pos_as_xyz
  1  'x, y, z'
loop_
 _atom_site_type_symbol
 _atom_site_label
 _atom_site_symmetry_multiplicity
 _atom_site_fract_x
 _atom_site_fract_y
 _atom_site_fract_z
 _atom_site_occupancy
  Na  Na0  1  0.74996600  0.49301663  0.75091697  1
  Na  Na1  1  0.25002695  0.99301688  0.74908239  1
  Na  Na2  1  0.25003383  0.50698338  0.24908321  1
  Na  Na3  1  0.74997322  0.00698310  0.25091755  1
  I  I4  1  0.75006571  0.90414894  0.75030937  1
  I  I5  1  0.24977789  0.40414866  0.74967305  1
  I  I6  1  0.24993448  0.09585103  0.24969046  1
  I  I7  1  0.75022192  0.59585138  0.25032699  1
