# generated using pymatgen
data_LiI
_symmetry_space_group_name_H-M   'P 1'
_cell_length_a   7.65577749
_cell_length_b   4.71758280
_cell_length_c   7.31955900
_cell_angle_alpha   90.00001529
_cell_angle_beta   90.00003876
_cell_angle_gamma   89.99999381
_symmetry_Int_Tables_number   1
_chemical_formula_structural   LiI
_chemical_formula_sum   'Li4 I4'
_cell_volume   264.35878685
_cell_formula_units_Z   4
loop_
 _symmetry_equiv_pos_site_id
 _symmetry_equiv_pos_as_xyz
  1  'x, y, z'
loop_
 _atom_site_type_symbol
 _atom_site_label
 _atom_site_symmetry_multiplicity
 _atom_site_fract_x
 _atom_site_fract_y
 _atom_site_fract_z
 _atom_site_occupancy
  Li  Li0  1  0.08652710  0.25083505  0.50688330  1
  Li  Li1  1  0.58652948  0.74916494  0.50688479  1
  Li  Li2  1  0.91347087  0.74916505  0.00688700  1
  Li  Li3  1  0.41347253  0.25083492  0.00688650  1
  I  I4  1  0.42958099  0.24913278  0.38705854  1
  I  I5  1  -0.07041881  0.75086714  0.38705738  1
  I  I6  1  0.57041878  0.75086728  0.88705720  1
  I  I7  1  0.07041907  0.24913285  0.88705809  1
