# generated using pymatgen
data_LiBr
_symmetry_space_group_name_H-M   'P 1'
_cell_length_a   4.15565769
_cell_length_b   6.97560548
_cell_length_c   10.56717007
_cell_angle_alpha   89.99992263
_cell_angle_beta   139.43144868
_cell_angle_gamma   90.00005286
_symmetry_Int_Tables_number   1
_chemical_formula_structural   LiBr
_chemical_formula_sum   'Li4 Br4'
_cell_volume   199.21977178
_cell_formula_units_Z   4
loop_
 _symmetry_equiv_pos_site_id
 _symmetry_equiv_pos_as_xyz
  1  'x, y, z'
loop_
 _atom_site_type_symbol
 _atom_site_label
 _atom_site_symmetry_multiplicity
 _atom_site_fract_x
 _atom_site_fract_y
 _atom_site_fract_z
 _atom_site_occupancy
  Li  Li0  1  0.69914712  0.16915588  0.78964013  1
  Li  Li1  1  0.19913555  0.66915405  0.78963865  1
  Li  Li2  1  0.69913878  0.83084283  0.28963650  1
  Li  Li3  1  0.19914011  0.33084701  0.28964076  1
  Br  Br4  1  0.94671773  0.33130119  0.65984968  1
  Br  Br5  1  0.44670886  0.83130129  0.65984843  1
  Br  Br6  1  0.94671096  0.66869874  0.15984778  1
  Br  Br7  1  0.44671461  0.16869902  0.15985212  1
