# generated using pymatgen
data_LiBr
_symmetry_space_group_name_H-M   'P 1'
_cell_length_a   7.14274054
_cell_length_b   7.94931682
_cell_length_c   7.43400273
_cell_angle_alpha   89.99986359
_cell_angle_beta   90.00019869
_cell_angle_gamma   90.00020596
_symmetry_Int_Tables_number   1
_chemical_formula_structural   LiBr
_chemical_formula_sum   'Li8 Br8'
_cell_volume   422.10198803
_cell_formula_units_Z   8
loop_
 _symmetry_equiv_pos_site_id
 _symmetry_equiv_pos_as_xyz
  1  'x, y, z'
loop_
 _atom_site_type_symbol
 _atom_site_label
 _atom_site_symmetry_multiplicity
 _atom_site_fract_x
 _atom_site_fract_y
 _atom_site_fract_z
 _atom_site_occupancy
  Li  Li0  1  0.16742580  0.62884077  0.58249961  1
  Li  Li1  1  0.16742158  0.87116078  0.08250086  1
  Li  Li2  1  0.66742014  0.87115867  0.41749430  1
  Li  Li3  1  0.33257400  0.37116635  0.08249895  1
  Li  Li4  1  0.83257675  0.12883320  0.91750599  1
  Li  Li5  1  0.33257493  0.12883889  0.58249651  1
  Li  Li6  1  0.66742425  0.62883479  0.91750321  1
  Li  Li7  1  0.83257550  0.37116185  0.41749665  1
  Br  Br8  1  0.80868163  0.86173383  0.10490806  1
  Br  Br9  1  0.80867495  0.63826854  0.60492262  1
  Br  Br10  1  0.30868039  0.63826543  0.89509111  1
  Br  Br11  1  0.69132248  0.13827092  0.60492057  1
  Br  Br12  1  0.19132491  0.36172999  0.39508100  1
  Br  Br13  1  0.69132307  0.36173290  0.10490732  1
  Br  Br14  1  0.30868092  0.86173324  0.39508139  1
  Br  Br15  1  0.19131868  0.13826987  0.89509186  1
