# generated using pymatgen
data_LiBr
_symmetry_space_group_name_H-M   'P 1'
_cell_length_a   3.86539922
_cell_length_b   6.67151665
_cell_length_c   6.42577039
_cell_angle_alpha   90.00000024
_cell_angle_beta   90.26892268
_cell_angle_gamma   89.99998408
_symmetry_Int_Tables_number   1
_chemical_formula_structural   LiBr
_chemical_formula_sum   'Li4 Br4'
_cell_volume   165.70642507
_cell_formula_units_Z   4
loop_
 _symmetry_equiv_pos_site_id
 _symmetry_equiv_pos_as_xyz
  1  'x, y, z'
loop_
 _atom_site_type_symbol
 _atom_site_label
 _atom_site_symmetry_multiplicity
 _atom_site_fract_x
 _atom_site_fract_y
 _atom_site_fract_z
 _atom_site_occupancy
  Li  Li0  1  0.39278314  -0.00141099  0.49314363  1
  Li  Li1  1  0.89278936  0.49860126  0.49315009  1
  Li  Li2  1  0.39278555  0.00141026  0.99314226  1
  Li  Li3  1  0.89278680  0.50139937  0.99315094  1
  Br  Br4  1  0.89410420  0.16600588  0.74356967  1
  Br  Br5  1  0.39410268  0.66600557  0.74357166  1
  Br  Br6  1  0.89410134  0.83399427  0.24356920  1
  Br  Br7  1  0.39410369  0.33399438  0.24357204  1
