# generated using pymatgen
data_LiI
_symmetry_space_group_name_H-M   'P 1'
_cell_length_a   12.46436413
_cell_length_b   6.75044514
_cell_length_c   6.76555743
_cell_angle_alpha   90.00100658
_cell_angle_beta   90.02589255
_cell_angle_gamma   90.00330819
_symmetry_Int_Tables_number   1
_chemical_formula_structural   LiI
_chemical_formula_sum   'Li8 I8'
_cell_volume   569.25398518
_cell_formula_units_Z   8
loop_
 _symmetry_equiv_pos_site_id
 _symmetry_equiv_pos_as_xyz
  1  'x, y, z'
loop_
 _atom_site_type_symbol
 _atom_site_label
 _atom_site_symmetry_multiplicity
 _atom_site_fract_x
 _atom_site_fract_y
 _atom_site_fract_z
 _atom_site_occupancy
  Li  Li0  1  0.00046097  0.75049231  -0.00002302  1
  Li  Li1  1  0.00046295  0.74949914  0.49996908  1
  Li  Li2  1  0.50047958  0.24956103  0.50002307  1
  Li  Li3  1  0.49950863  0.74954890  -0.00001956  1
  Li  Li4  1  -0.00046170  0.25050176  0.50003075  1
  Li  Li5  1  0.49951518  0.75043854  0.49997693  1
  Li  Li6  1  0.50049111  0.25045000  0.00002063  1
  Li  Li7  1  -0.00045657  0.24950847  0.00002232  1
  I  I8  1  0.11492408  0.00053695  0.25026391  1
  I  I9  1  0.11492516  0.49944800  0.75025756  1
  I  I10  1  0.61492511  -0.00059957  0.24963656  1
  I  I11  1  0.38507154  0.49941500  0.25036116  1
  I  I12  1  0.88507776  0.50055262  0.24973853  1
  I  I13  1  0.38507174  0.00059898  0.75036795  1
  I  I14  1  0.61492551  0.50058423  0.74963516  1
  I  I15  1  0.88507894  -0.00053637  0.74973897  1
