# generated using pymatgen
data_LiBr
_symmetry_space_group_name_H-M   'P 1'
_cell_length_a   11.54320458
_cell_length_b   11.54321315
_cell_length_c   7.89577133
_cell_angle_alpha   90.00095101
_cell_angle_beta   89.99892517
_cell_angle_gamma   120.01248541
_symmetry_Int_Tables_number   1
_chemical_formula_structural   LiBr
_chemical_formula_sum   'Li18 Br18'
_cell_volume   911.01105905
_cell_formula_units_Z   18
loop_
 _symmetry_equiv_pos_site_id
 _symmetry_equiv_pos_as_xyz
  1  'x, y, z'
loop_
 _atom_site_type_symbol
 _atom_site_label
 _atom_site_symmetry_multiplicity
 _atom_site_fract_x
 _atom_site_fract_y
 _atom_site_fract_z
 _atom_site_occupancy
  Li  Li0  1  0.87002300  0.74063035  0.44156814  1
  Li  Li1  1  0.87001370  0.12939707  0.94165897  1
  Li  Li2  1  0.59261741  0.79663491  0.60879864  1
  Li  Li3  1  0.20403296  0.40731017  0.60873936  1
  Li  Li4  1  -0.07407288  0.46267198  0.77542276  1
  Li  Li5  1  0.25944033  0.12938464  0.44152588  1
  Li  Li6  1  0.20401385  0.79664105  0.10879136  1
  Li  Li7  1  0.59268883  0.79596757  0.10874348  1
  Li  Li8  1  0.87059904  0.12999611  0.44166042  1
  Li  Li9  1  0.87061022  0.74054894  0.94151871  1
  Li  Li10  1  0.20336205  0.40738496  0.10880608  1
  Li  Li11  1  0.20336264  0.79598801  0.60879771  1
  Li  Li12  1  0.53732996  0.46320208  0.77551191  1
  Li  Li13  1  0.53732615  0.07407880  0.27542302  1
  Li  Li14  1  0.25937137  0.12997875  0.94157533  1
  Li  Li15  1  -0.07415414  0.46318220  0.27546508  1
  Li  Li16  1  0.53681749  0.07415368  0.77546539  1
  Li  Li17  1  0.53679386  0.46267404  0.27550812  1
  Br  Br18  1  0.12031474  0.24123696  0.86903905  1
  Br  Br19  1  0.12032884  0.87913913  0.36895022  1
  Br  Br20  1  0.09202558  0.54634998  0.03588286  1
  Br  Br21  1  0.45427216  0.90792048  0.03583599  1
  Br  Br22  1  0.42562503  0.21255137  0.20224761  1
  Br  Br23  1  0.75881826  0.87913064  0.86898820  1
  Br  Br24  1  0.45426105  0.54634647  0.53583237  1
  Br  Br25  1  0.09208372  0.54572847  0.53583385  1
  Br  Br26  1  0.12085742  0.87967354  0.86894928  1
  Br  Br27  1  0.12086347  0.24117905  0.36898781  1
  Br  Br28  1  0.45365337  0.90797463  0.53588298  1
  Br  Br29  1  0.45364880  0.54574119  0.03583025  1
  Br  Br30  1  0.78744094  0.21307134  0.20227902  1
  Br  Br31  1  0.78745045  0.57436846  0.70224068  1
  Br  Br32  1  0.75876880  0.87969200  0.36903703  1
  Br  Br33  1  0.42558376  0.21309943  0.70229817  1
  Br  Br34  1  0.78689686  0.57441394  0.20229655  1
  Br  Br35  1  0.78693088  0.21255760  0.70228556  1
