# generated using pymatgen
data_NaI
_symmetry_space_group_name_H-M   'P 1'
_cell_length_a   15.97452485
_cell_length_b   5.44630946
_cell_length_c   16.42800335
_cell_angle_alpha   89.99958820
_cell_angle_beta   90.00416243
_cell_angle_gamma   90.00039376
_symmetry_Int_Tables_number   1
_chemical_formula_structural   NaI
_chemical_formula_sum   'Na16 I16'
_cell_volume   1429.27252512
_cell_formula_units_Z   16
loop_
 _symmetry_equiv_pos_site_id
 _symmetry_equiv_pos_as_xyz
  1  'x, y, z'
loop_
 _atom_site_type_symbol
 _atom_site_label
 _atom_site_symmetry_multiplicity
 _atom_site_fract_x
 _atom_site_fract_y
 _atom_site_fract_z
 _atom_site_occupancy
  Na  Na0  1  0.58786431  0.76206378  0.70498836  1
  Na  Na1  1  0.41213263  0.23793857  0.70499041  1
  Na  Na2  1  0.66213277  0.01206255  0.95499067  1
  Na  Na3  1  0.91213160  0.23793833  0.20499060  1
  Na  Na4  1  0.16213446  0.01206226  0.45499076  1
  Na  Na5  1  0.83786548  0.48793643  0.95498835  1
  Na  Na6  1  0.08786606  0.76206355  0.20498855  1
  Na  Na7  1  0.16213367  0.51206212  0.95499073  1
  Na  Na8  1  0.83786614  -0.01206376  0.45498825  1
  Na  Na9  1  0.08786432  0.26206333  0.70498865  1
  Na  Na10  1  0.91213250  0.73793812  0.70499065  1
  Na  Na11  1  0.66213089  0.51206221  0.45499061  1
  Na  Na12  1  0.33786291  0.48793608  0.45498847  1
  Na  Na13  1  0.33786500  -0.01206384  0.95498852  1
  Na  Na14  1  0.58786367  0.26206354  0.20498852  1
  Na  Na15  1  0.41213441  0.73793832  0.20499068  1
  I  I16  1  0.35687069  0.49568053  0.03720742  1
  I  I17  1  0.64313192  0.50431701  0.03720996  1
  I  I18  1  0.89313205  0.74568263  0.28720968  1
  I  I19  1  0.14313217  0.50431680  0.53720975  1
  I  I20  1  0.39313192  0.74568312  0.78720964  1
  I  I21  1  0.60687021  0.75431918  0.28720727  1
  I  I22  1  0.85687033  0.49568027  0.53720752  1
  I  I23  1  0.39313195  0.24568333  0.28720975  1
  I  I24  1  0.60687016  0.25431949  0.78720749  1
  I  I25  1  0.85687029  -0.00431954  0.03720734  1
  I  I26  1  0.14313227  0.00431681  0.03720964  1
  I  I27  1  0.89313200  0.24568269  0.78720974  1
  I  I28  1  0.10687032  0.75431910  0.78720744  1
  I  I29  1  0.10687034  0.25431944  0.28720774  1
  I  I30  1  0.35687059  -0.00431954  0.53720717  1
  I  I31  1  0.64313196  0.00431709  0.53720990  1
