# generated using pymatgen
data_NaI
_symmetry_space_group_name_H-M   'P 1'
_cell_length_a   9.23521912
_cell_length_b   9.23520902
_cell_length_c   13.05140611
_cell_angle_alpha   90.00066972
_cell_angle_beta   90.00033110
_cell_angle_gamma   89.99997409
_symmetry_Int_Tables_number   1
_chemical_formula_structural   NaI
_chemical_formula_sum   'Na16 I16'
_cell_volume   1113.14371149
_cell_formula_units_Z   16
loop_
 _symmetry_equiv_pos_site_id
 _symmetry_equiv_pos_as_xyz
  1  'x, y, z'
loop_
 _atom_site_type_symbol
 _atom_site_label
 _atom_site_symmetry_multiplicity
 _atom_site_fract_x
 _atom_site_fract_y
 _atom_site_fract_z
 _atom_site_occupancy
  Na  Na0  1  0.50038774  0.24965486  0.32321654  1
  Na  Na1  1  0.74965466  0.50038766  0.57321596  1
  Na  Na2  1  0.49961142  0.24965435  0.82321532  1
  Na  Na3  1  0.49961514  0.75034616  0.32320926  1
  Na  Na4  1  0.25034544  0.49961475  0.57321036  1
  Na  Na5  1  0.75034516  0.00038557  0.57321261  1
  Na  Na6  1  0.24965505  -0.00038857  0.57321397  1
  Na  Na7  1  0.25034591  0.50038631  0.07321226  1
  Na  Na8  1  0.74965503  0.49961154  0.07321478  1
  Na  Na9  1  -0.00038508  0.25034569  0.82321025  1
  Na  Na10  1  0.75034571  -0.00038575  0.07321063  1
  Na  Na11  1  0.00038818  0.74965451  0.82321625  1
  Na  Na12  1  0.24965429  0.00038701  0.07321548  1
  Na  Na13  1  -0.00038843  0.74965449  0.32321459  1
  Na  Na14  1  0.00038597  0.25034524  0.32321163  1
  Na  Na15  1  0.50038600  0.75034540  0.82321140  1
  I  I16  1  0.75036141  0.00042042  0.32319852  1
  I  I17  1  0.50042012  0.75036115  0.57319771  1
  I  I18  1  0.24963827  0.00041989  0.82320060  1
  I  I19  1  0.24964024  -0.00041931  0.32320035  1
  I  I20  1  0.49958052  0.24963977  0.57320092  1
  I  I21  1  -0.00041971  0.25035999  0.57319727  1
  I  I22  1  0.00041874  0.74963889  0.57320138  1
  I  I23  1  0.49958026  0.75036042  0.07319717  1
  I  I24  1  0.50041911  0.24963931  0.07320174  1
  I  I25  1  0.74964030  0.49957964  0.82320060  1
  I  I26  1  -0.00041996  0.74963903  0.07320075  1
  I  I27  1  0.25036121  0.50042010  0.82319826  1
  I  I28  1  0.00042024  0.25036080  0.07319830  1
  I  I29  1  0.74963799  0.50041920  0.32320118  1
  I  I30  1  0.25035959  0.49958094  0.32319779  1
  I  I31  1  0.75035948  -0.00041943  0.82319795  1
