# generated using pymatgen
data_LiBr
_symmetry_space_group_name_H-M   'P 1'
_cell_length_a   7.34154778
_cell_length_b   7.35843382
_cell_length_c   8.88815249
_cell_angle_alpha   90.00012586
_cell_angle_beta   89.99993318
_cell_angle_gamma   90.00002270
_symmetry_Int_Tables_number   1
_chemical_formula_structural   LiBr
_chemical_formula_sum   'Li8 Br8'
_cell_volume   480.15838237
_cell_formula_units_Z   8
loop_
 _symmetry_equiv_pos_site_id
 _symmetry_equiv_pos_as_xyz
  1  'x, y, z'
loop_
 _atom_site_type_symbol
 _atom_site_label
 _atom_site_symmetry_multiplicity
 _atom_site_fract_x
 _atom_site_fract_y
 _atom_site_fract_z
 _atom_site_occupancy
  Li  Li0  1  0.25117399  -0.00016502  0.92750180  1
  Li  Li1  1  0.75117417  0.00016509  0.42750368  1
  Li  Li2  1  0.24882532  0.49983544  0.92750348  1
  Li  Li3  1  0.74882555  0.00016325  0.92750463  1
  Li  Li4  1  0.75117478  0.50016283  0.92750208  1
  Li  Li5  1  0.24882565  -0.00016288  0.42750461  1
  Li  Li6  1  0.74882557  0.50016518  0.42750553  1
  Li  Li7  1  0.25117473  0.49983705  0.42750223  1
  Br  Br8  1  -0.00032362  0.74936895  0.42770761  1
  Br  Br9  1  0.49967668  0.25063076  0.92770597  1
  Br  Br10  1  0.50032370  0.24936894  0.42770644  1
  Br  Br11  1  0.00032378  0.25063062  0.42770793  1
  Br  Br12  1  0.49967640  0.75063049  0.42770810  1
  Br  Br13  1  0.50032329  0.74936916  0.92770700  1
  Br  Br14  1  0.00032311  0.75063089  0.92770537  1
  Br  Br15  1  -0.00032311  0.24936925  0.92770770  1
