# generated using pymatgen
data_LiBr
_symmetry_space_group_name_H-M   'P 1'
_cell_length_a   7.17144096
_cell_length_b   7.17144790
_cell_length_c   8.25593363
_cell_angle_alpha   90.00005311
_cell_angle_beta   90.00004112
_cell_angle_gamma   90.00002818
_symmetry_Int_Tables_number   1
_chemical_formula_structural   LiBr
_chemical_formula_sum   'Li8 Br8'
_cell_volume   424.59948986
_cell_formula_units_Z   8
loop_
 _symmetry_equiv_pos_site_id
 _symmetry_equiv_pos_as_xyz
  1  'x, y, z'
loop_
 _atom_site_type_symbol
 _atom_site_label
 _atom_site_symmetry_multiplicity
 _atom_site_fract_x
 _atom_site_fract_y
 _atom_site_fract_z
 _atom_site_occupancy
  Li  Li0  1  0.83165933  0.66844542  0.37510480  1
  Li  Li1  1  0.83155472  0.66834262  0.87510487  1
  Li  Li2  1  0.33165816  0.83155581  0.12489540  1
  Li  Li3  1  0.16844510  0.33165800  0.87510486  1
  Li  Li4  1  0.66834178  0.16844433  0.12489519  1
  Li  Li5  1  0.16834135  0.33155315  0.37510561  1
  Li  Li6  1  0.33155317  0.83165909  0.62489475  1
  Li  Li7  1  0.66844633  0.16834106  0.62489464  1
  Br  Br8  1  0.68881991  0.81080896  0.12511948  1
  Br  Br9  1  0.68919150  0.81118073  0.62511853  1
  Br  Br10  1  0.18882024  0.68919043  0.37488075  1
  Br  Br11  1  0.31080874  0.18881944  0.62511939  1
  Br  Br12  1  0.81117963  0.31080950  0.37488113  1
  Br  Br13  1  0.31117999  0.18919141  0.12511912  1
  Br  Br14  1  0.18919194  0.68881940  0.87488049  1
  Br  Br15  1  0.81080810  0.31118066  0.87488100  1
