# generated using pymatgen
data_LiBr
_symmetry_space_group_name_H-M   'P 1'
_cell_length_a   7.64224320
_cell_length_b   7.64224205
_cell_length_c   13.53684450
_cell_angle_alpha   89.99943939
_cell_angle_beta   90.00072668
_cell_angle_gamma   90.00003418
_symmetry_Int_Tables_number   1
_chemical_formula_structural   LiBr
_chemical_formula_sum   'Li16 Br16'
_cell_volume   790.60413826
_cell_formula_units_Z   16
loop_
 _symmetry_equiv_pos_site_id
 _symmetry_equiv_pos_as_xyz
  1  'x, y, z'
loop_
 _atom_site_type_symbol
 _atom_site_label
 _atom_site_symmetry_multiplicity
 _atom_site_fract_x
 _atom_site_fract_y
 _atom_site_fract_z
 _atom_site_occupancy
  Li  Li0  1  0.41453078  0.74739998  0.87369688  1
  Li  Li1  1  0.75260373  0.91453096  0.62630385  1
  Li  Li2  1  0.41459990  0.24743659  0.37634079  1
  Li  Li3  1  0.58546886  0.25260113  0.87369770  1
  Li  Li4  1  0.24739373  0.08547104  0.62630446  1
  Li  Li5  1  0.25254714  0.91460292  0.12366456  1
  Li  Li6  1  0.74743802  0.08540055  0.12365919  1
  Li  Li7  1  0.75256715  0.41460058  0.62365841  1
  Li  Li8  1  0.24745200  0.58540372  0.62366140  1
  Li  Li9  1  0.08546984  0.75258615  0.37370016  1
  Li  Li10  1  0.74740001  0.58546723  0.12630234  1
  Li  Li11  1  0.91453222  0.24739618  0.37369340  1
  Li  Li12  1  0.25259494  0.41453339  0.12630171  1
  Li  Li13  1  0.91459740  0.74743774  0.87633938  1
  Li  Li14  1  0.08540099  0.25255499  0.87633985  1
  Li  Li15  1  0.58540010  0.75256258  0.37633872  1
  Br  Br16  1  0.67101580  0.66868389  0.75021844  1
  Br  Br17  1  0.83131264  0.17101927  0.74978090  1
  Br  Br18  1  0.67106743  0.16860479  0.49987595  1
  Br  Br19  1  0.32897739  0.33131302  0.75022282  1
  Br  Br20  1  0.16868151  0.82897815  0.74977822  1
  Br  Br21  1  0.33139651  0.17106093  0.00012559  1
  Br  Br22  1  0.66860789  0.82894114  0.00011987  1
  Br  Br23  1  0.83139431  0.67106158  0.50012346  1
  Br  Br24  1  0.16860922  0.32894654  0.50012063  1
  Br  Br25  1  0.82898144  0.83131041  0.25021936  1
  Br  Br26  1  0.66868150  0.32897671  0.24977675  1
  Br  Br27  1  0.17101700  0.16868945  0.25021977  1
  Br  Br28  1  0.33131317  0.67101945  0.24978255  1
  Br  Br29  1  0.17106014  0.66861077  -0.00012293  1
  Br  Br30  1  0.82894466  0.33139622  -0.00012230  1
  Br  Br31  1  0.32894258  0.83140196  0.49987812  1
