# generated using pymatgen
data_LiBr
_symmetry_space_group_name_H-M   'P 1'
_cell_length_a   4.34404040
_cell_length_b   11.92822813
_cell_length_c   6.23800912
_cell_angle_alpha   90.00009093
_cell_angle_beta   132.77910722
_cell_angle_gamma   90.00004826
_symmetry_Int_Tables_number   1
_chemical_formula_structural   LiBr
_chemical_formula_sum   'Li4 Br4'
_cell_volume   237.24582937
_cell_formula_units_Z   4
loop_
 _symmetry_equiv_pos_site_id
 _symmetry_equiv_pos_as_xyz
  1  'x, y, z'
loop_
 _atom_site_type_symbol
 _atom_site_label
 _atom_site_symmetry_multiplicity
 _atom_site_fract_x
 _atom_site_fract_y
 _atom_site_fract_z
 _atom_site_occupancy
  Li  Li0  1  0.96046443  0.49155415  0.55148312  1
  Li  Li1  1  0.46052298  -0.00844477  0.55150839  1
  Li  Li2  1  0.96046471  0.50844602  0.05148323  1
  Li  Li3  1  0.46052354  0.00844449  0.05150884  1
  Br  Br4  1  -0.03982786  0.89840624  0.05098103  1
  Br  Br5  1  0.46013662  0.39840545  0.05097848  1
  Br  Br6  1  -0.03982603  0.10159351  0.55098207  1
  Br  Br7  1  0.46013865  0.60159492  0.55097996  1
