# generated using pymatgen
data_LiBr
_symmetry_space_group_name_H-M   'P 1'
_cell_length_a   11.90609152
_cell_length_b   11.90608540
_cell_length_c   7.32369630
_cell_angle_alpha   90.00226301
_cell_angle_beta   89.99769112
_cell_angle_gamma   120.00539117
_symmetry_Int_Tables_number   1
_chemical_formula_structural   LiBr
_chemical_formula_sum   'Li18 Br18'
_cell_volume   899.03287406
_cell_formula_units_Z   18
loop_
 _symmetry_equiv_pos_site_id
 _symmetry_equiv_pos_as_xyz
  1  'x, y, z'
loop_
 _atom_site_type_symbol
 _atom_site_label
 _atom_site_symmetry_multiplicity
 _atom_site_fract_x
 _atom_site_fract_y
 _atom_site_fract_z
 _atom_site_occupancy
  Li  Li0  1  0.79193582  0.83299869  0.92895610  1
  Li  Li1  1  0.79196040  0.95892968  0.42896771  1
  Li  Li2  1  0.50065698  0.87464119  0.09557560  1
  Li  Li3  1  0.37398603  0.49937691  0.09558132  1
  Li  Li4  1  0.83371427  0.29219148  0.26241580  1
  Li  Li5  1  0.16702073  0.95894590  0.92895981  1
  Li  Li6  1  0.37398843  0.87465519  0.59558391  1
  Li  Li7  1  0.50062402  0.62601476  0.59558124  1
  Li  Li8  1  0.04106956  0.20803893  0.92896782  1
  Li  Li9  1  0.04105440  0.83298048  0.42895987  1
  Li  Li10  1  0.12535881  0.49934326  0.59557641  1
  Li  Li11  1  0.12534540  0.62601174  0.09558462  1
  Li  Li12  1  0.70780419  0.54150852  0.26242617  1
  Li  Li13  1  0.70780965  0.16628761  0.76241666  1
  Li  Li14  1  0.16699994  0.20806283  0.42895673  1
  Li  Li15  1  0.83368518  0.54149360  0.76242113  1
  Li  Li16  1  0.45850562  0.16631469  0.26242096  1
  Li  Li17  1  0.45849109  0.29219647  0.76242547  1
  Br  Br18  1  0.87510136  0.37472564  0.59577154  1
  Br  Br19  1  0.87510112  0.50037445  0.09579121  1
  Br  Br20  1  0.95870210  0.79175443  0.76238472  1
  Br  Br21  1  0.83304762  0.04128831  0.76239629  1
  Br  Br22  1  0.29201043  0.83372302  0.92901428  1
  Br  Br23  1  0.62526561  0.50037630  0.59579255  1
  Br  Br24  1  0.83304421  0.79174668  0.26238435  1
  Br  Br25  1  0.95871092  0.16695127  0.26239606  1
  Br  Br26  1  0.49962580  0.12489985  0.59579151  1
  Br  Br27  1  0.49962363  0.37473444  0.09579196  1
  Br  Br28  1  0.20824515  0.04129765  0.26238424  1
  Br  Br29  1  0.20825214  0.16695499  0.76238420  1
  Br  Br30  1  0.16626121  0.45827364  0.92899765  1
  Br  Br31  1  0.16627619  0.70798974  0.42901486  1
  Br  Br32  1  0.62527457  0.12490016  0.09577205  1
  Br  Br33  1  0.29200813  0.45828630  0.42899745  1
  Br  Br34  1  0.54171324  0.70799180  0.92899718  1
  Br  Br35  1  0.54172604  0.83373939  0.42899649  1
