# generated using pymatgen
data_NaI
_symmetry_space_group_name_H-M   'P 1'
_cell_length_a   12.48782490
_cell_length_b   6.24753359
_cell_length_c   5.74008813
_cell_angle_alpha   90.00738700
_cell_angle_beta   90.00715828
_cell_angle_gamma   90.00006369
_symmetry_Int_Tables_number   1
_chemical_formula_structural   NaI
_chemical_formula_sum   'Na4 I4'
_cell_volume   447.83079426
_cell_formula_units_Z   4
loop_
 _symmetry_equiv_pos_site_id
 _symmetry_equiv_pos_as_xyz
  1  'x, y, z'
loop_
 _atom_site_type_symbol
 _atom_site_label
 _atom_site_symmetry_multiplicity
 _atom_site_fract_x
 _atom_site_fract_y
 _atom_site_fract_z
 _atom_site_occupancy
  Na  Na0  1  0.12514185  0.75345568  0.64837898  1
  Na  Na1  1  0.37485882  0.25345844  0.64839661  1
  Na  Na2  1  0.87485960  0.24654337  0.64838588  1
  Na  Na3  1  0.62514101  0.74654626  0.64836912  1
  I  I4  1  0.12483803  0.25269353  0.63687728  1
  I  I5  1  0.37516134  0.75269430  0.63685503  1
  I  I6  1  0.87516167  0.74730379  0.63683610  1
  I  I7  1  0.62483769  0.24730463  0.63685908  1
