# generated using pymatgen
data_NaI
_symmetry_space_group_name_H-M   'P 1'
_cell_length_a   8.85909138
_cell_length_b   8.85908582
_cell_length_c   8.24000814
_cell_angle_alpha   89.99617239
_cell_angle_beta   89.99788070
_cell_angle_gamma   89.99984458
_symmetry_Int_Tables_number   1
_chemical_formula_structural   NaI
_chemical_formula_sum   'Na8 I8'
_cell_volume   646.70427178
_cell_formula_units_Z   8
loop_
 _symmetry_equiv_pos_site_id
 _symmetry_equiv_pos_as_xyz
  1  'x, y, z'
loop_
 _atom_site_type_symbol
 _atom_site_label
 _atom_site_symmetry_multiplicity
 _atom_site_fract_x
 _atom_site_fract_y
 _atom_site_fract_z
 _atom_site_occupancy
  Na  Na0  1  0.35689216  0.83364773  0.50873780  1
  Na  Na1  1  0.66638281  0.14309431  0.00875751  1
  Na  Na2  1  0.85691151  0.66637036  0.99125251  1
  Na  Na3  1  0.33364717  0.85689039  0.00873707  1
  Na  Na4  1  0.14311595  0.33363249  0.99125264  1
  Na  Na5  1  0.64309620  0.16638393  0.50875750  1
  Na  Na6  1  0.16637189  0.35691399  0.49125050  1
  Na  Na7  1  0.83363448  0.64311887  0.49125502  1
  I  I8  1  0.28866921  0.11023022  0.73806880  1
  I  I9  1  0.38978041  0.21127886  0.23805544  1
  I  I10  1  0.78868103  0.38978347  0.76193746  1
  I  I11  1  0.61023014  0.78866862  0.23806825  1
  I  I12  1  0.21129100  0.61023274  0.76193856  1
  I  I13  1  0.71127964  0.88978113  0.73805479  1
  I  I14  1  0.88978355  0.28868170  0.26193580  1
  I  I15  1  0.11023284  0.71129119  0.26194036  1
