# generated using pymatgen
data_LiBr
_symmetry_space_group_name_H-M   'P 1'
_cell_length_a   5.51207587
_cell_length_b   3.89176752
_cell_length_c   3.89239871
_cell_angle_alpha   89.99998400
_cell_angle_beta   90.11365334
_cell_angle_gamma   90.00000131
_symmetry_Int_Tables_number   1
_chemical_formula_structural   LiBr
_chemical_formula_sum   'Li2 Br2'
_cell_volume   83.49847451
_cell_formula_units_Z   2
loop_
 _symmetry_equiv_pos_site_id
 _symmetry_equiv_pos_as_xyz
  1  'x, y, z'
loop_
 _atom_site_type_symbol
 _atom_site_label
 _atom_site_symmetry_multiplicity
 _atom_site_fract_x
 _atom_site_fract_y
 _atom_site_fract_z
 _atom_site_occupancy
  Li  Li0  1  0.74929490  0.68359815  0.24642490  1
  Li  Li1  1  0.25070459  0.18359834  0.75357583  1
  Br  Br2  1  0.74984759  0.18511639  0.74954862  1
  Br  Br3  1  0.25015292  0.68511651  0.25045065  1
