# generated using pymatgen
data_NaI
_symmetry_space_group_name_H-M   'P 1'
_cell_length_a   9.22606077
_cell_length_b   5.62295478
_cell_length_c   6.50153862
_cell_angle_alpha   90.00113740
_cell_angle_beta   90.00173760
_cell_angle_gamma   89.99799760
_symmetry_Int_Tables_number   1
_chemical_formula_structural   NaI
_chemical_formula_sum   'Na4 I4'
_cell_volume   337.28501594
_cell_formula_units_Z   4
loop_
 _symmetry_equiv_pos_site_id
 _symmetry_equiv_pos_as_xyz
  1  'x, y, z'
loop_
 _atom_site_type_symbol
 _atom_site_label
 _atom_site_symmetry_multiplicity
 _atom_site_fract_x
 _atom_site_fract_y
 _atom_site_fract_z
 _atom_site_occupancy
  Na  Na0  1  0.42465773  0.25187394  0.42070825  1
  Na  Na1  1  0.92465837  0.74813261  0.42072030  1
  Na  Na2  1  0.57534160  0.74814078  0.92053882  1
  Na  Na3  1  0.07534341  0.25185279  0.92053011  1
  I  I4  1  0.08015342  0.24848290  0.41903096  1
  I  I5  1  0.58015066  0.75149742  0.41903540  1
  I  I6  1  -0.08015270  0.75150917  -0.08093632  1
  I  I7  1  0.41984751  0.24851039  -0.08093859  1
