# generated using pymatgen
data_LiBr
_symmetry_space_group_name_H-M   'P 1'
_cell_length_a   14.42814758
_cell_length_b   14.42815304
_cell_length_c   14.42813837
_cell_angle_alpha   90.00010424
_cell_angle_beta   90.00003238
_cell_angle_gamma   89.99999436
_symmetry_Int_Tables_number   1
_chemical_formula_structural   LiBr
_chemical_formula_sum   'Li48 Br48'
_cell_volume   3003.52751375
_cell_formula_units_Z   48
loop_
 _symmetry_equiv_pos_site_id
 _symmetry_equiv_pos_as_xyz
  1  'x, y, z'
loop_
 _atom_site_type_symbol
 _atom_site_label
 _atom_site_symmetry_multiplicity
 _atom_site_fract_x
 _atom_site_fract_y
 _atom_site_fract_z
 _atom_site_occupancy
  Li  Li0  1  0.07075586  0.17248954  0.50224371  1
  Li  Li1  1  -0.00224295  0.57075579  0.17248983  1
  Li  Li2  1  0.00224316  0.92924430  0.17248927  1
  Li  Li3  1  -0.00224306  0.42924414  0.32751063  1
  Li  Li4  1  0.00224363  0.07075551  0.32751044  1
  Li  Li5  1  0.17248987  -0.00224292  0.57075652  1
  Li  Li6  1  0.82751054  0.50224291  0.57075526  1
  Li  Li7  1  0.07075559  0.82751029  -0.00224372  1
  Li  Li8  1  0.57075599  0.67248962  0.00224372  1
  Li  Li9  1  0.49775728  0.07075565  0.67248985  1
  Li  Li10  1  0.49775634  0.42924421  0.17248953  1
  Li  Li11  1  0.32751030  0.50224320  0.92924340  1
  Li  Li12  1  0.49775676  0.57075575  0.32751084  1
  Li  Li13  1  0.50224302  0.07075600  0.17248958  1
  Li  Li14  1  0.50224276  0.92924430  0.32751024  1
  Li  Li15  1  0.67248947  -0.00224295  0.92924471  1
  Li  Li16  1  0.32751039  0.49775698  0.57075586  1
  Li  Li17  1  0.82751029  -0.00224308  0.07075565  1
  Li  Li18  1  0.17248965  0.50224327  0.07075533  1
  Li  Li19  1  0.42924418  0.82751041  0.00224289  1
  Li  Li20  1  0.92924406  0.82751035  0.49775645  1
  Li  Li21  1  0.17248958  0.00224289  0.92924417  1
  Li  Li22  1  0.82751037  0.49775658  0.92924460  1
  Li  Li23  1  0.57075588  0.17248961  -0.00224291  1
  Li  Li24  1  0.57075588  0.82751070  0.50224269  1
  Li  Li25  1  0.42924426  0.67248990  0.50224374  1
  Li  Li26  1  0.67248975  0.00224338  0.57075526  1
  Li  Li27  1  0.92924402  0.32751026  0.50224286  1
  Li  Li28  1  0.92924418  0.67248921  -0.00224277  1
  Li  Li29  1  0.50224320  0.42924425  0.67248913  1
  Li  Li30  1  0.49775723  0.92924412  0.82751043  1
  Li  Li31  1  0.50224385  0.57075559  0.82751040  1
  Li  Li32  1  0.67248970  0.49775684  0.07075645  1
  Li  Li33  1  0.32751063  0.00224317  0.07075512  1
  Li  Li34  1  0.67248958  0.50224324  0.42924424  1
  Li  Li35  1  0.32751035  -0.00224318  0.42924467  1
  Li  Li36  1  0.42924420  0.17248945  0.49775748  1
  Li  Li37  1  0.57075578  0.32751025  0.49775631  1
  Li  Li38  1  0.07075598  0.67248965  0.49775724  1
  Li  Li39  1  0.07075577  0.32751062  0.00224268  1
  Li  Li40  1  0.92924407  0.17248973  0.00224364  1
  Li  Li41  1  0.42924406  0.32751047  -0.00224394  1
  Li  Li42  1  0.00224292  0.42924416  0.82751009  1
  Li  Li43  1  -0.00224325  0.07075573  0.82751074  1
  Li  Li44  1  0.00224298  0.57075588  0.67248945  1
  Li  Li45  1  -0.00224381  0.92924453  0.67248960  1
  Li  Li46  1  0.82751013  0.00224285  0.42924345  1
  Li  Li47  1  0.17248948  0.49775682  0.42924482  1
  Br  Br48  1  0.83809242  0.43883109  0.40332961  1
  Br  Br49  1  0.09666983  0.33809250  0.43883136  1
  Br  Br50  1  0.90333027  0.16190715  0.43883180  1
  Br  Br51  1  0.09666991  0.66190779  0.06116852  1
  Br  Br52  1  0.90333004  0.83809240  0.06116805  1
  Br  Br53  1  0.43883124  0.09667010  0.33809268  1
  Br  Br54  1  0.56116837  0.40333006  0.33809201  1
  Br  Br55  1  0.83809265  0.56116823  0.09667055  1
  Br  Br56  1  0.33809230  0.93883116  0.90332964  1
  Br  Br57  1  0.59666996  0.83809252  0.93883175  1
  Br  Br58  1  0.59666985  0.66190737  0.43883186  1
  Br  Br59  1  0.06116869  0.40333007  0.16190732  1
  Br  Br60  1  0.59666959  0.33809278  0.06116815  1
  Br  Br61  1  0.40333008  0.83809232  0.43883148  1
  Br  Br62  1  0.40333002  0.16190757  0.06116854  1
  Br  Br63  1  0.93883158  0.09666991  0.16190802  1
  Br  Br64  1  0.06116860  0.59666989  0.33809278  1
  Br  Br65  1  0.56116853  0.09666995  0.83809296  1
  Br  Br66  1  0.43883154  0.40332989  0.83809199  1
  Br  Br67  1  0.66190776  0.56116824  0.90333075  1
  Br  Br68  1  0.16190749  0.56116881  0.59667031  1
  Br  Br69  1  0.43883124  0.90333026  0.16190710  1
  Br  Br70  1  0.56116826  0.59667012  0.16190800  1
  Br  Br71  1  0.33809215  0.43883183  0.09666926  1
  Br  Br72  1  0.33809219  0.56116843  0.40333035  1
  Br  Br73  1  0.66190737  0.93883166  0.40332939  1
  Br  Br74  1  0.93883191  0.90332958  0.33809200  1
  Br  Br75  1  0.16190765  0.06116838  0.40333068  1
  Br  Br76  1  0.16190780  0.93883140  0.09666970  1
  Br  Br77  1  0.40333042  0.66190738  0.93883178  1
  Br  Br78  1  0.59666990  0.16190798  0.56116867  1
  Br  Br79  1  0.40333001  0.33809272  0.56116792  1
  Br  Br80  1  0.93883122  0.59666996  0.83809271  1
  Br  Br81  1  0.06116825  0.90332998  0.83809239  1
  Br  Br82  1  0.93883155  0.40333006  0.66190709  1
  Br  Br83  1  0.06116846  0.09667030  0.66190794  1
  Br  Br84  1  0.66190776  0.43883166  0.59666967  1
  Br  Br85  1  0.33809266  0.06116828  0.59667047  1
  Br  Br86  1  0.83809239  0.93883164  0.59666915  1
  Br  Br87  1  0.83809234  0.06116860  0.90333029  1
  Br  Br88  1  0.16190756  0.43883167  0.90332955  1
  Br  Br89  1  0.66190747  0.06116882  0.09667034  1
  Br  Br90  1  0.90333010  0.66190746  0.56116843  1
  Br  Br91  1  0.09666967  0.83809253  0.56116830  1
  Br  Br92  1  0.90333017  0.33809212  0.93883141  1
  Br  Br93  1  0.09667002  0.16190733  0.93883237  1
  Br  Br94  1  0.56116913  0.90333003  0.66190739  1
  Br  Br95  1  0.43883176  0.59667006  0.66190790  1
