# generated using pymatgen
data_KBr
_symmetry_space_group_name_H-M   'P 1'
_cell_length_a   8.08092013
_cell_length_b   4.03879042
_cell_length_c   8.09066404
_cell_angle_alpha   90.00075140
_cell_angle_beta   89.99936141
_cell_angle_gamma   89.99977692
_symmetry_Int_Tables_number   1
_chemical_formula_structural   KBr
_chemical_formula_sum   'K4 Br4'
_cell_volume   264.05615747
_cell_formula_units_Z   4
loop_
 _symmetry_equiv_pos_site_id
 _symmetry_equiv_pos_as_xyz
  1  'x, y, z'
loop_
 _atom_site_type_symbol
 _atom_site_label
 _atom_site_symmetry_multiplicity
 _atom_site_fract_x
 _atom_site_fract_y
 _atom_site_fract_z
 _atom_site_occupancy
  K  K0  1  0.49800599  0.49812474  0.64535742  1
  K  K1  1  -0.00199466  0.50187509  0.64535869  1
  K  K2  1  0.50199518  0.50187260  0.14535352  1
  K  K3  1  0.00199423  0.49812738  0.14535240  1
  Br  Br4  1  0.25000418  -0.00526242  0.89429506  1
  Br  Br5  1  0.75000534  0.00526251  0.89429831  1
  Br  Br6  1  0.74999431  0.00526894  0.39428776  1
  Br  Br7  1  0.24999543  -0.00526883  0.39428459  1
