# generated using pymatgen
data_NaI
_symmetry_space_group_name_H-M   'P 1'
_cell_length_a   9.24458091
_cell_length_b   9.22194896
_cell_length_c   13.04631923
_cell_angle_alpha   89.99684832
_cell_angle_beta   90.00020982
_cell_angle_gamma   89.99866807
_symmetry_Int_Tables_number   1
_chemical_formula_structural   NaI
_chemical_formula_sum   'Na16 I16'
_cell_volume   1112.23854670
_cell_formula_units_Z   16
loop_
 _symmetry_equiv_pos_site_id
 _symmetry_equiv_pos_as_xyz
  1  'x, y, z'
loop_
 _atom_site_type_symbol
 _atom_site_label
 _atom_site_symmetry_multiplicity
 _atom_site_fract_x
 _atom_site_fract_y
 _atom_site_fract_z
 _atom_site_occupancy
  Na  Na0  1  -0.00016012  0.25033859  0.05124240  1
  Na  Na1  1  0.00012768  0.74959809  0.05133244  1
  Na  Na2  1  0.25003953  0.50040350  0.30135728  1
  Na  Na3  1  0.50013096  0.74959646  0.55132836  1
  Na  Na4  1  0.75004188  0.50040317  0.80135773  1
  Na  Na5  1  0.24999709  -0.00034600  0.30135517  1
  Na  Na6  1  0.49984039  0.25033748  0.55124572  1
  Na  Na7  1  0.75003941  0.00040380  0.30135726  1
  Na  Na8  1  0.24999490  0.49965228  0.80135565  1
  Na  Na9  1  0.49984109  0.75033803  0.05124286  1
  Na  Na10  1  0.50012766  0.24959805  0.05133106  1
  Na  Na11  1  0.25004150  0.00040242  0.80135797  1
  Na  Na12  1  0.74999535  -0.00034843  0.80135581  1
  Na  Na13  1  0.74999560  0.49965320  0.30135542  1
  Na  Na14  1  -0.00015955  0.75033879  0.55124148  1
  Na  Na15  1  0.00013010  0.24959754  0.55133006  1
  I  I16  1  0.25063739  0.49987957  0.05144663  1
  I  I17  1  0.74933804  0.50006545  0.05143881  1
  I  I18  1  -0.00040444  0.74998562  0.30163500  1
  I  I19  1  0.24934009  0.50006793  0.55143864  1
  I  I20  1  0.49959642  0.74998293  0.80163527  1
  I  I21  1  0.50041993  0.75007727  0.30164458  1
  I  I22  1  0.75064060  0.49988007  0.55144623  1
  I  I23  1  0.49959655  0.24998509  0.30163745  1
  I  I24  1  0.50042059  0.25007678  0.80164523  1
  I  I25  1  0.75063832  -0.00011899  0.05144698  1
  I  I26  1  0.24934038  0.00006815  0.05143930  1
  I  I27  1  -0.00040340  0.24998357  0.80163486  1
  I  I28  1  0.00041947  0.75007736  0.80164685  1
  I  I29  1  0.00041929  0.25007819  0.30164606  1
  I  I30  1  0.25063816  -0.00012154  0.55144645  1
  I  I31  1  0.74933916  0.00006555  0.55143894  1
