# generated using pymatgen
data_LiBr
_symmetry_space_group_name_H-M   'P 1'
_cell_length_a   11.97196496
_cell_length_b   11.97196242
_cell_length_c   7.19733637
_cell_angle_alpha   90.00069178
_cell_angle_beta   89.99938977
_cell_angle_gamma   120.00192624
_symmetry_Int_Tables_number   1
_chemical_formula_structural   LiBr
_chemical_formula_sum   'Li18 Br18'
_cell_volume   893.35646336
_cell_formula_units_Z   18
loop_
 _symmetry_equiv_pos_site_id
 _symmetry_equiv_pos_as_xyz
  1  'x, y, z'
loop_
 _atom_site_type_symbol
 _atom_site_label
 _atom_site_symmetry_multiplicity
 _atom_site_fract_x
 _atom_site_fract_y
 _atom_site_fract_z
 _atom_site_occupancy
  Li  Li0  1  0.79088724  0.95843010  0.48098651  1
  Li  Li1  1  0.79090383  0.83246795  -0.01900609  1
  Li  Li2  1  0.37486011  0.87578139  0.64730219  1
  Li  Li3  1  0.50091322  0.62513144  0.64731917  1
  Li  Li4  1  0.70842553  0.16608435  0.81456941  1
  Li  Li5  1  0.04157076  0.83245839  0.48099508  1
  Li  Li6  1  0.50092108  0.87578360  0.14730864  1
  Li  Li7  1  0.37486936  0.49908836  0.14732086  1
  Li  Li8  1  0.16753038  0.20909721  0.48099273  1
  Li  Li9  1  0.16754452  0.95843159  -0.01900571  1
  Li  Li10  1  0.12421813  0.62513867  0.14730179  1
  Li  Li11  1  0.12421589  0.49907890  0.64730995  1
  Li  Li12  1  0.83390680  0.54233847  0.81457257  1
  Li  Li13  1  0.83391540  0.29157397  0.31456815  1
  Li  Li14  1  0.04156856  0.20911125  -0.01901355  1
  Li  Li15  1  0.70842917  0.54234271  0.31456903  1
  Li  Li16  1  0.45765592  0.29157169  0.81456852  1
  Li  Li17  1  0.45766265  0.16609453  0.31457437  1
  Br  Br18  1  0.20818525  0.16728087  0.81705203  1
  Br  Br19  1  0.20819253  0.04090499  0.31705248  1
  Br  Br20  1  0.16604199  0.45853068  0.98341232  1
  Br  Br21  1  0.29249318  0.83396527  0.98340834  1
  Br  Br22  1  0.49957290  0.37434879  0.15039218  1
  Br  Br23  1  0.83271729  0.04090672  0.81704448  1
  Br  Br24  1  0.29248410  0.45851787  0.48341642  1
  Br  Br25  1  0.16603392  0.70750689  0.48340769  1
  Br  Br26  1  0.95909788  0.79180899  0.81705344  1
  Br  Br27  1  0.95909128  0.16728119  0.31704390  1
  Br  Br28  1  0.54146818  0.83395766  0.48341172  1
  Br  Br29  1  0.54148262  0.70751542  0.98341536  1
  Br  Br30  1  0.62565381  0.12522783  0.15039654  1
  Br  Br31  1  0.62565219  0.50042734  0.65039194  1
  Br  Br32  1  0.83271983  0.79181404  0.31705358  1
  Br  Br33  1  0.49957111  0.12522740  0.65039610  1
  Br  Br34  1  0.87477199  0.50042763  0.15039399  1
  Br  Br35  1  0.87477141  0.37434581  0.65039531  1
