# generated using pymatgen
data_LiI
_symmetry_space_group_name_H-M   'P 1'
_cell_length_a   12.54039527
_cell_length_b   12.54043951
_cell_length_c   8.69937829
_cell_angle_alpha   90.00445041
_cell_angle_beta   89.99524840
_cell_angle_gamma   120.00849629
_symmetry_Int_Tables_number   1
_chemical_formula_structural   LiI
_chemical_formula_sum   'Li18 I18'
_cell_volume   1184.69250553
_cell_formula_units_Z   18
loop_
 _symmetry_equiv_pos_site_id
 _symmetry_equiv_pos_as_xyz
  1  'x, y, z'
loop_
 _atom_site_type_symbol
 _atom_site_label
 _atom_site_symmetry_multiplicity
 _atom_site_fract_x
 _atom_site_fract_y
 _atom_site_fract_z
 _atom_site_occupancy
  Li  Li0  1  0.86791282  0.13089694  0.02272303  1
  Li  Li1  1  0.86787016  0.73697567  0.52269776  1
  Li  Li2  1  0.20243532  0.79875317  0.18939019  1
  Li  Li3  1  0.59633552  0.79760702  0.18939217  1
  Li  Li4  1  0.53572772  0.07033206  0.35605820  1
  Li  Li5  1  0.86906198  0.73699666  0.02272449  1
  Li  Li6  1  0.59635812  0.79879732  0.68936624  1
  Li  Li7  1  0.20239335  0.40366391  0.68939068  1
  Li  Li8  1  0.26302496  0.13212903  0.02269956  1
  Li  Li9  1  0.26300233  0.13094053  0.52272530  1
  Li  Li10  1  0.20124644  0.79756460  0.68939048  1
  Li  Li11  1  0.20120412  0.40364148  0.18936483  1
  Li  Li12  1  0.92969223  0.46546270  0.35603186  1
  Li  Li13  1  0.92966953  0.46427210  0.85605847  1
  Li  Li14  1  0.86910191  0.13208770  0.52272208  1
  Li  Li15  1  0.53576916  0.46542108  0.85605380  1
  Li  Li16  1  0.53458038  0.46423146  0.35605553  1
  Li  Li17  1  0.53453817  0.07030975  0.85603288  1
  I  I18  1  0.45262910  0.90585883  0.61538666  1
  I  I19  1  0.45262966  0.54673696  0.11546121  1
  I  I20  1  0.42747393  0.21403691  0.78205359  1
  I  I21  1  0.78658660  0.57255586  0.78206908  1
  I  I22  1  0.76077743  0.88008002  0.94873719  1
  I  I23  1  0.09411081  0.54674788  0.61540297  1
  I  I24  1  0.78659621  0.21403706  0.28212816  1
  I  I25  1  0.42744403  0.21341419  0.28207051  1
  I  I26  1  0.45326304  0.54737116  0.61546134  1
  I  I27  1  0.45325205  0.90588850  0.11540357  1
  I  I28  1  0.78596258  0.57252521  0.28205282  1
  I  I29  1  0.78596254  0.21340327  0.78212894  1
  I  I30  1  0.11992967  0.88070386  0.94879555  1
  I  I31  1  0.11991835  0.23922115  0.44873614  1
  I  I32  1  0.09414144  0.54737082  0.11538625  1
  I  I33  1  0.76080746  0.88070406  0.44871993  1
  I  I34  1  0.11929528  0.23919078  0.94871954  1
  I  I35  1  0.11929557  0.88007031  0.44879598  1
