# generated using pymatgen
data_LiBr
_symmetry_space_group_name_H-M   'P 1'
_cell_length_a   11.94757392
_cell_length_b   11.94836023
_cell_length_c   8.05937282
_cell_angle_alpha   90.00049683
_cell_angle_beta   89.98984378
_cell_angle_gamma   120.00887733
_symmetry_Int_Tables_number   1
_chemical_formula_structural   LiBr
_chemical_formula_sum   'Li18 Br18'
_cell_volume   996.27916140
_cell_formula_units_Z   18
loop_
 _symmetry_equiv_pos_site_id
 _symmetry_equiv_pos_as_xyz
  1  'x, y, z'
loop_
 _atom_site_type_symbol
 _atom_site_label
 _atom_site_symmetry_multiplicity
 _atom_site_fract_x
 _atom_site_fract_y
 _atom_site_fract_z
 _atom_site_occupancy
  Li  Li0  1  0.44810418  0.12638964  0.20994438  1
  Li  Li1  1  0.98841874  0.78153187  0.12340679  1
  Li  Li2  1  0.55189516  0.87361170  0.79005637  1
  Li  Li3  1  0.67828262  0.55187475  0.20996771  1
  Li  Li4  1  0.79302897  0.01153169  0.12345687  1
  Li  Li5  1  0.12632410  0.67824506  0.79010105  1
  Li  Li6  1  0.54024236  0.65506342  0.54320317  1
  Li  Li7  1  0.87367484  0.32175283  0.20990016  1
  Li  Li8  1  0.32171963  0.44812433  0.79003203  1
  Li  Li9  1  0.45976024  0.34493971  0.45679486  1
  Li  Li10  1  0.20696891  0.98846677  0.87654437  1
  Li  Li11  1  0.34497717  0.88515183  0.54326628  1
  Li  Li12  1  0.65502180  0.11484948  0.45673452  1
  Li  Li13  1  0.01158031  0.21846778  0.87659258  1
  Li  Li14  1  0.11483430  0.45981996  0.54324073  1
  Li  Li15  1  0.88516701  0.54017897  0.45675857  1
  Li  Li16  1  0.21848667  0.20690240  0.12342088  1
  Li  Li17  1  0.78151264  0.79309730  0.87657861  1
  Br  Br18  1  0.13588815  0.67666769  0.47345581  1
  Br  Br19  1  0.12591848  0.46923179  0.85987815  1
  Br  Br20  1  0.86411216  0.32333133  0.52654540  1
  Br  Br21  1  0.54081882  0.86414440  0.47342600  1
  Br  Br22  1  0.34328315  0.87400173  0.85990262  1
  Br  Br23  1  0.67665288  0.54073675  0.52659608  1
  Br  Br24  1  0.99004282  0.79264339  0.80678151  1
  Br  Br25  1  0.32334905  0.45926440  0.47340326  1
  Br  Br26  1  0.45918033  0.13585731  0.52657413  1
  Br  Br27  1  0.00995600  0.20735525  0.19321904  1
  Br  Br28  1  0.65671562  0.12599813  0.14009757  1
  Br  Br29  1  0.20743723  0.19745952  0.80678967  1
  Br  Br30  1  0.79256211  0.80253952  0.19320978  1
  Br  Br31  1  0.87408368  0.53076788  0.14012226  1
  Br  Br32  1  0.80257919  0.00996082  0.80681088  1
  Br  Br33  1  0.19742024  0.99003915  0.19319016  1
  Br  Br34  1  0.53073484  0.65670532  0.85985573  1
  Br  Br35  1  0.46926559  0.34329613  0.14014201  1
