# generated using pymatgen
data_KI
_symmetry_space_group_name_H-M   'P 1'
_cell_length_a   13.33963922
_cell_length_b   13.33910095
_cell_length_c   12.99915323
_cell_angle_alpha   89.98812431
_cell_angle_beta   90.00128134
_cell_angle_gamma   119.99083188
_symmetry_Int_Tables_number   1
_chemical_formula_structural   KI
_chemical_formula_sum   'K18 I18'
_cell_volume   2003.34820514
_cell_formula_units_Z   18
loop_
 _symmetry_equiv_pos_site_id
 _symmetry_equiv_pos_as_xyz
  1  'x, y, z'
loop_
 _atom_site_type_symbol
 _atom_site_label
 _atom_site_symmetry_multiplicity
 _atom_site_fract_x
 _atom_site_fract_y
 _atom_site_fract_z
 _atom_site_occupancy
  K  K0  1  0.26891535  0.87007527  0.48410958  1
  K  K1  1  0.06549501  0.60223547  0.84919503  1
  K  K2  1  0.73108484  0.12992473  0.51589192  1
  K  K3  1  0.60116447  0.73108570  0.48411269  1
  K  K4  1  0.53673894  0.93449742  0.84918781  1
  K  K5  1  0.87007415  0.60115538  0.51588442  1
  K  K6  1  0.79657531  0.73215726  0.81739012  1
  K  K7  1  0.12992590  0.39884528  0.48411731  1
  K  K8  1  0.39883535  0.26891406  0.51588845  1
  K  K9  1  0.20342573  0.26784294  0.18260904  1
  K  K10  1  0.46326001  0.06550181  0.15081127  1
  K  K11  1  0.26785068  0.06441892  0.81738748  1
  K  K12  1  0.73214921  -0.06441849  0.18261236  1
  K  K13  1  0.93450529  0.39776429  0.15080391  1
  K  K14  1  -0.06442157  0.20342273  0.81738298  1
  K  K15  1  0.06442139  0.79657686  0.18261657  1
  K  K16  1  0.39775995  0.46325931  0.84919498  1
  K  K17  1  0.60224003  0.53674107  0.15080396  1
  I  I18  1  0.39362295  0.47534807  0.35273864  1
  I  I19  1  0.58495266  0.72700001  -0.01941350  1
  I  I20  1  0.60637739  0.52465197  0.64726063  1
  I  I21  1  0.08171807  0.60636088  0.35274062  1
  I  I22  1  0.14204912  0.41505933  -0.01940304  1
  I  I23  1  0.47535654  0.08173368  0.64727373  1
  I  I24  1  0.19127133  0.25161847  0.68611007  1
  I  I25  1  0.52464395  0.91826674  0.35272541  1
  I  I26  1  0.91828140  0.39363857  0.64725889  1
  I  I27  1  0.80872936  0.74838168  0.31388966  1
  I  I28  1  0.85794966  0.58494004  0.01940423  1
  I  I29  1  0.74836847  0.93964406  0.68612082  1
  I  I30  1  0.25163163  0.06035670  0.31387873  1
  I  I31  1  0.41504775  0.27299979  0.01941449  1
  I  I32  1  0.06034842  0.80872011  0.68612634  1
  I  I33  1  0.93965022  0.19127862  0.31387324  1
  I  I34  1  0.27301304  0.85795750  -0.01941512  1
  I  I35  1  0.72698798  0.14204377  0.01941629  1
