# generated using pymatgen
data_NaBr
_symmetry_space_group_name_H-M   'P 1'
_cell_length_a   4.26675478
_cell_length_b   4.26675480
_cell_length_c   12.06592901
_cell_angle_alpha   89.99993784
_cell_angle_beta   90.00001610
_cell_angle_gamma   90.00000012
_symmetry_Int_Tables_number   1
_chemical_formula_structural   NaBr
_chemical_formula_sum   'Na4 Br4'
_cell_volume   219.66260808
_cell_formula_units_Z   4
loop_
 _symmetry_equiv_pos_site_id
 _symmetry_equiv_pos_as_xyz
  1  'x, y, z'
loop_
 _atom_site_type_symbol
 _atom_site_label
 _atom_site_symmetry_multiplicity
 _atom_site_fract_x
 _atom_site_fract_y
 _atom_site_fract_z
 _atom_site_occupancy
  Na  Na0  1  0.49477781  -0.00112885  0.32673998  1
  Na  Na1  1  -0.00112756  0.50522174  0.57674004  1
  Na  Na2  1  0.50522019  0.00112775  0.82673615  1
  Na  Na3  1  0.00112902  0.49477934  0.07673609  1
  Br  Br4  1  0.49902352  0.00505842  0.57681223  1
  Br  Br5  1  0.00505737  0.50097685  0.82681012  1
  Br  Br6  1  0.50097813  -0.00505745  0.07680887  1
  Br  Br7  1  -0.00505848  0.49902220  0.32681098  1
