# generated using pymatgen
data_LiI
_symmetry_space_group_name_H-M   'P 1'
_cell_length_a   12.61718211
_cell_length_b   12.61718448
_cell_length_c   7.77449495
_cell_angle_alpha   89.99986248
_cell_angle_beta   89.99981893
_cell_angle_gamma   90.00002875
_symmetry_Int_Tables_number   1
_chemical_formula_structural   LiI
_chemical_formula_sum   'Li16 I16'
_cell_volume   1237.64761818
_cell_formula_units_Z   16
loop_
 _symmetry_equiv_pos_site_id
 _symmetry_equiv_pos_as_xyz
  1  'x, y, z'
loop_
 _atom_site_type_symbol
 _atom_site_label
 _atom_site_symmetry_multiplicity
 _atom_site_fract_x
 _atom_site_fract_y
 _atom_site_fract_z
 _atom_site_occupancy
  Li  Li0  1  0.75623210  0.38765169  0.41251911  1
  Li  Li1  1  0.11234574  0.25623227  0.41252028  1
  Li  Li2  1  0.74376813  0.88765131  0.08747859  1
  Li  Li3  1  0.38765165  0.24376474  0.58747671  1
  Li  Li4  1  0.75623482  0.61234586  0.91252661  1
  Li  Li5  1  0.61234686  0.75623557  0.58747380  1
  Li  Li6  1  0.74376487  0.11234553  0.58747204  1
  Li  Li7  1  0.25623585  0.88765244  0.58747371  1
  Li  Li8  1  0.88765337  0.25623503  0.91252819  1
  Li  Li9  1  0.24376361  0.38765673  0.91252879  1
  Li  Li10  1  0.11234761  0.74376387  0.91252735  1
  Li  Li11  1  0.24376756  0.61234950  0.41251906  1
  Li  Li12  1  0.88765099  0.74376549  0.41252239  1
  Li  Li13  1  0.61234685  0.24376793  0.08747801  1
  Li  Li14  1  0.25623386  0.11235138  0.08748247  1
  Li  Li15  1  0.38765057  0.75623415  0.08748236  1
  I  I16  1  0.75791346  0.41184047  0.05590630  1
  I  I17  1  0.08815963  0.25791269  0.05590345  1
  I  I18  1  0.74208755  0.91184122  0.44409776  1
  I  I19  1  0.41183626  0.24208498  0.94409377  1
  I  I20  1  0.75791464  0.58816491  0.55590582  1
  I  I21  1  0.58816444  0.75791489  0.94409820  1
  I  I22  1  0.74208590  0.08816419  0.94409515  1
  I  I23  1  0.25791342  0.91183403  0.94409591  1
  I  I24  1  0.91183759  0.25791406  0.55590297  1
  I  I25  1  0.24208671  0.41183636  0.55590072  1
  I  I26  1  0.08816238  0.74208484  0.55590144  1
  I  I27  1  0.24208774  0.58815618  0.05589919  1
  I  I28  1  0.91184160  0.74208802  0.05590377  1
  I  I29  1  0.58816192  0.24208760  0.44409541  1
  I  I30  1  0.25791220  0.08815982  0.44409523  1
  I  I31  1  0.41184010  0.75791223  0.44409546  1
