# generated using pymatgen
data_LiBr
_symmetry_space_group_name_H-M   'P 1'
_cell_length_a   7.32581781
_cell_length_b   6.80186154
_cell_length_c   4.32098881
_cell_angle_alpha   90.00002569
_cell_angle_beta   90.00003938
_cell_angle_gamma   89.99972993
_symmetry_Int_Tables_number   1
_chemical_formula_structural   LiBr
_chemical_formula_sum   'Li4 Br4'
_cell_volume   215.31140880
_cell_formula_units_Z   4
loop_
 _symmetry_equiv_pos_site_id
 _symmetry_equiv_pos_as_xyz
  1  'x, y, z'
loop_
 _atom_site_type_symbol
 _atom_site_label
 _atom_site_symmetry_multiplicity
 _atom_site_fract_x
 _atom_site_fract_y
 _atom_site_fract_z
 _atom_site_occupancy
  Li  Li0  1  0.15587426  0.15826379  -0.25264841  1
  Li  Li1  1  0.84412914  0.65826036  0.75264903  1
  Li  Li2  1  0.34412569  0.84173612  0.24735177  1
  Li  Li3  1  0.65587077  0.34173978  0.25264890  1
  Br  Br4  1  0.67044867  0.72348705  0.25257469  1
  Br  Br5  1  0.32955046  0.22348696  0.24742502  1
  Br  Br6  1  0.82955139  0.27651291  0.75257460  1
  Br  Br7  1  0.17044962  0.77651304  0.74742440  1
