# generated using pymatgen
data_NaI
_symmetry_space_group_name_H-M   'P 1'
_cell_length_a   8.94149533
_cell_length_b   5.16523284
_cell_length_c   7.92701963
_cell_angle_alpha   89.99983449
_cell_angle_beta   89.99988330
_cell_angle_gamma   89.99956187
_symmetry_Int_Tables_number   1
_chemical_formula_structural   NaI
_chemical_formula_sum   'Na4 I4'
_cell_volume   366.10865101
_cell_formula_units_Z   4
loop_
 _symmetry_equiv_pos_site_id
 _symmetry_equiv_pos_as_xyz
  1  'x, y, z'
loop_
 _atom_site_type_symbol
 _atom_site_label
 _atom_site_symmetry_multiplicity
 _atom_site_fract_x
 _atom_site_fract_y
 _atom_site_fract_z
 _atom_site_occupancy
  Na  Na0  1  0.41248883  0.25045129  0.24015050  1
  Na  Na1  1  -0.08748128  0.74955563  0.24017316  1
  Na  Na2  1  0.58749183  0.74954251  0.74016840  1
  Na  Na3  1  0.08750102  0.25044222  0.74015403  1
  I  I4  1  0.42069086  0.24916427  0.63270572  1
  I  I5  1  0.92069008  0.75083379  0.63271774  1
  I  I6  1  0.57931475  0.75083619  0.13272037  1
  I  I7  1  0.07930390  0.24917410  0.13270409  1
