# generated using pymatgen
data_LiBr
_symmetry_space_group_name_H-M   'P 1'
_cell_length_a   5.51395518
_cell_length_b   5.49773536
_cell_length_c   5.49850482
_cell_angle_alpha   89.99996668
_cell_angle_beta   90.01883797
_cell_angle_gamma   89.99995640
_symmetry_Int_Tables_number   1
_chemical_formula_structural   LiBr
_chemical_formula_sum   'Li4 Br4'
_cell_volume   166.68313062
_cell_formula_units_Z   4
loop_
 _symmetry_equiv_pos_site_id
 _symmetry_equiv_pos_as_xyz
  1  'x, y, z'
loop_
 _atom_site_type_symbol
 _atom_site_label
 _atom_site_symmetry_multiplicity
 _atom_site_fract_x
 _atom_site_fract_y
 _atom_site_fract_z
 _atom_site_occupancy
  Li  Li0  1  0.34901938  0.25012353  0.63291941  1
  Li  Li1  1  0.84901910  0.75011249  0.63292323  1
  Li  Li2  1  0.34901947  0.74987572  0.13292023  1
  Li  Li3  1  0.84901913  0.24988699  0.13292416  1
  Br  Br4  1  0.84765319  0.75021984  0.13364128  1
  Br  Br5  1  0.34765339  0.25021889  0.13364087  1
  Br  Br6  1  0.84765328  0.24978083  0.63364148  1
  Br  Br7  1  0.34765339  0.74978173  0.63364107  1
