# generated using pymatgen
data_KI
_symmetry_space_group_name_H-M   'P 1'
_cell_length_a   10.12737121
_cell_length_b   8.41435051
_cell_length_c   9.52366285
_cell_angle_alpha   89.99980264
_cell_angle_beta   90.00011291
_cell_angle_gamma   90.00009722
_symmetry_Int_Tables_number   1
_chemical_formula_structural   KI
_chemical_formula_sum   'K8 I8'
_cell_volume   811.56132102
_cell_formula_units_Z   8
loop_
 _symmetry_equiv_pos_site_id
 _symmetry_equiv_pos_as_xyz
  1  'x, y, z'
loop_
 _atom_site_type_symbol
 _atom_site_label
 _atom_site_symmetry_multiplicity
 _atom_site_fract_x
 _atom_site_fract_y
 _atom_site_fract_z
 _atom_site_occupancy
  K  K0  1  0.33037364  0.05545974  0.66321290  1
  K  K1  1  0.33037302  0.44454090  0.16321249  1
  K  K2  1  0.83037331  0.44454047  0.33678667  1
  K  K3  1  0.16962722  -0.05545888  0.16321266  1
  K  K4  1  0.66962703  0.55545907  0.83678756  1
  K  K5  1  0.16962663  0.55545951  0.66321323  1
  K  K6  1  0.83037271  0.05545889  0.83678727  1
  K  K7  1  0.66962642  -0.05545972  0.33678708  1
  I  I8  1  0.12836058  0.25241376  0.40971258  1
  I  I9  1  0.12835960  0.24758614  0.90971139  1
  I  I10  1  0.62836057  0.24758640  0.59028739  1
  I  I11  1  0.37164045  0.74758630  0.90971143  1
  I  I12  1  0.87164039  0.75241384  0.09028864  1
  I  I13  1  0.37163943  0.75241360  0.40971265  1
  I  I14  1  0.62835956  0.25241371  0.09028861  1
  I  I15  1  0.87163943  0.74758627  0.59028744  1
