# generated using pymatgen
data_LiBr
_symmetry_space_group_name_H-M   'P 1'
_cell_length_a   4.25064480
_cell_length_b   8.71803534
_cell_length_c   7.19623367
_cell_angle_alpha   89.99998609
_cell_angle_beta   123.70665743
_cell_angle_gamma   89.99997478
_symmetry_Int_Tables_number   1
_chemical_formula_structural   LiBr
_chemical_formula_sum   'Li4 Br4'
_cell_volume   221.84232953
_cell_formula_units_Z   4
loop_
 _symmetry_equiv_pos_site_id
 _symmetry_equiv_pos_as_xyz
  1  'x, y, z'
loop_
 _atom_site_type_symbol
 _atom_site_label
 _atom_site_symmetry_multiplicity
 _atom_site_fract_x
 _atom_site_fract_y
 _atom_site_fract_z
 _atom_site_occupancy
  Li  Li0  1  0.29374115  0.85200301  0.04123929  1
  Li  Li1  1  0.70625990  0.35200313  0.45876184  1
  Li  Li2  1  0.70625931  0.14799665  0.95876185  1
  Li  Li3  1  0.29374044  0.64799719  0.54123926  1
  Br  Br4  1  0.57640367  0.86821597  0.81120644  1
  Br  Br5  1  0.42359590  0.36821433  0.68879199  1
  Br  Br6  1  0.42359590  0.13178538  0.18879241  1
  Br  Br7  1  0.57640373  0.63178434  0.31120691  1
