# generated using pymatgen
data_LiBr
_symmetry_space_group_name_H-M   'P 1'
_cell_length_a   11.92475120
_cell_length_b   11.92474847
_cell_length_c   7.30148574
_cell_angle_alpha   90.00088384
_cell_angle_beta   89.99911475
_cell_angle_gamma   120.00352382
_symmetry_Int_Tables_number   1
_chemical_formula_structural   LiBr
_chemical_formula_sum   'Li18 Br18'
_cell_volume   899.13520933
_cell_formula_units_Z   18
loop_
 _symmetry_equiv_pos_site_id
 _symmetry_equiv_pos_as_xyz
  1  'x, y, z'
loop_
 _atom_site_type_symbol
 _atom_site_label
 _atom_site_symmetry_multiplicity
 _atom_site_fract_x
 _atom_site_fract_y
 _atom_site_fract_z
 _atom_site_occupancy
  Li  Li0  1  0.87540489  0.37462640  0.12886972  1
  Li  Li1  1  0.87540877  0.50077432  0.62886545  1
  Li  Li2  1  0.95866095  0.79126835  0.29568173  1
  Li  Li3  1  0.83261278  0.04133443  0.29567556  1
  Li  Li4  1  0.29201462  0.83412368  0.46240536  1
  Li  Li5  1  0.62537152  0.50077733  0.12886472  1
  Li  Li6  1  0.83260466  0.79126691  0.79567552  1
  Li  Li7  1  0.95866468  0.16738639  0.79567598  1
  Li  Li8  1  0.49922763  0.12459250  0.12886274  1
  Li  Li9  1  0.49922332  0.37463004  0.62886387  1
  Li  Li10  1  0.20873091  0.04133886  0.79568218  1
  Li  Li11  1  0.20873404  0.16739603  0.29567688  1
  Li  Li12  1  0.16588830  0.45790085  0.46240290  1
  Li  Li13  1  0.16587751  0.70798578  0.96240650  1
  Li  Li14  1  0.62537366  0.12459581  0.62886916  1
  Li  Li15  1  0.29200487  0.45790447  0.96240169  1
  Li  Li16  1  0.54209427  0.70799447  0.46240113  1
  Li  Li17  1  0.54209819  0.83410952  0.96240038  1
  Br  Br18  1  0.70803082  0.54150254  0.79503975  1
  Br  Br19  1  0.70803217  0.16651702  0.29503815  1
  Br  Br20  1  0.79187092  0.95859322  -0.03809296  1
  Br  Br21  1  0.16673083  0.20813380  -0.03808853  1
  Br  Br22  1  0.12516298  0.49983778  0.12853994  1
  Br  Br23  1  0.45849447  0.16652428  0.79503930  1
  Br  Br24  1  0.16672500  0.95859910  0.46191376  1
  Br  Br25  1  0.79186531  0.83326801  0.46191022  1
  Br  Br26  1  0.83348305  0.29196832  0.79503864  1
  Br  Br27  1  0.83347641  0.54150510  0.29504065  1
  Br  Br28  1  0.04140577  0.20812823  0.46190771  1
  Br  Br29  1  0.04140086  0.83327439  -0.03808608  1
  Br  Br30  1  0.50016116  0.62532889  0.12853500  1
  Br  Br31  1  0.50016224  0.87483746  0.62853861  1
  Br  Br32  1  0.45849831  0.29196939  0.29503926  1
  Br  Br33  1  0.12516765  0.62533479  0.62853612  1
  Br  Br34  1  0.37466649  0.87483312  0.12853507  1
  Br  Br35  1  0.37467000  0.49983841  0.62853521  1
