# generated using pymatgen
data_LiBr
_symmetry_space_group_name_H-M   'P 1'
_cell_length_a   11.92408075
_cell_length_b   11.92405201
_cell_length_c   7.29436293
_cell_angle_alpha   89.99447907
_cell_angle_beta   90.00570542
_cell_angle_gamma   120.00206325
_symmetry_Int_Tables_number   1
_chemical_formula_structural   LiBr
_chemical_formula_sum   'Li18 Br18'
_cell_volume   898.16832837
_cell_formula_units_Z   18
loop_
 _symmetry_equiv_pos_site_id
 _symmetry_equiv_pos_as_xyz
  1  'x, y, z'
loop_
 _atom_site_type_symbol
 _atom_site_label
 _atom_site_symmetry_multiplicity
 _atom_site_fract_x
 _atom_site_fract_y
 _atom_site_fract_z
 _atom_site_occupancy
  Li  Li0  1  0.95977615  0.79130474  0.20007437  1
  Li  Li1  1  0.95978291  0.16847442  0.69998401  1
  Li  Li2  1  0.54203128  0.70688965  0.36674621  1
  Li  Li3  1  0.16485504  0.45797724  0.36671634  1
  Li  Li4  1  0.87536169  0.50181411  0.53338276  1
  Li  Li5  1  0.20869303  0.16848801  0.20005903  1
  Li  Li6  1  0.16485950  0.70688366  0.86665295  1
  Li  Li7  1  0.54203176  0.83515011  0.86671587  1
  Li  Li8  1  0.83152866  0.04021824  0.19998093  1
  Li  Li9  1  0.83152183  0.79130520  0.70004872  1
  Li  Li10  1  0.29311546  0.45797625  0.86674149  1
  Li  Li11  1  0.29311190  0.83514098  0.36665208  1
  Li  Li12  1  0.49819956  0.37355274  0.53331348  1
  Li  Li13  1  0.49818046  0.12463278  0.03338771  1
  Li  Li14  1  0.20869335  0.04022369  0.70008103  1
  Li  Li15  1  0.87536015  0.37355271  0.03341289  1
  Li  Li16  1  0.62644298  0.12463747  0.53341235  1
  Li  Li17  1  0.62644178  0.50179842  0.03331127  1
  Br  Br18  1  0.83432184  0.54121786  0.19861797  1
  Br  Br19  1  0.83434156  0.29311562  0.69865022  1
  Br  Br20  1  0.79211488  0.83234300  0.36528599  1
  Br  Br21  1  0.04022276  0.20788852  0.36526462  1
  Br  Br22  1  0.12544916  0.62644328  0.53193005  1
  Br  Br23  1  0.45878096  0.29310500  0.19859889  1
  Br  Br24  1  0.04021791  0.83232349  0.86531707  1
  Br  Br25  1  0.79211883  0.95977552  0.86526051  1
  Br  Br26  1  0.70688124  0.16565280  0.19864908  1
  Br  Br27  1  0.70689333  0.54121739  0.69859618  1
  Br  Br28  1  0.16765918  0.20788994  0.86528968  1
  Br  Br29  1  0.16767397  0.95978553  0.36531708  1
  Br  Br30  1  0.37355286  0.49898981  0.53198007  1
  Br  Br31  1  0.37355680  0.87454658  0.03193273  1
  Br  Br32  1  0.45877822  0.16567396  0.69862249  1
  Br  Br33  1  0.12544637  0.49900787  0.03195114  1
  Br  Br34  1  0.50099004  0.87455245  0.53195368  1
  Br  Br35  1  0.50101261  0.62645095  0.03198235  1
