# generated using pymatgen
data_LiBr
_symmetry_space_group_name_H-M   'P 1'
_cell_length_a   14.19535515
_cell_length_b   14.19487209
_cell_length_c   4.97400883
_cell_angle_alpha   89.98861223
_cell_angle_beta   89.88556978
_cell_angle_gamma   90.00433869
_symmetry_Int_Tables_number   1
_chemical_formula_structural   LiBr
_chemical_formula_sum   'Li16 Br16'
_cell_volume   1002.26697912
_cell_formula_units_Z   16
loop_
 _symmetry_equiv_pos_site_id
 _symmetry_equiv_pos_as_xyz
  1  'x, y, z'
loop_
 _atom_site_type_symbol
 _atom_site_label
 _atom_site_symmetry_multiplicity
 _atom_site_fract_x
 _atom_site_fract_y
 _atom_site_fract_z
 _atom_site_occupancy
  Li  Li0  1  0.57792425  0.57755042  0.70863597  1
  Li  Li1  1  0.07768657  0.57808999  -0.04132975  1
  Li  Li2  1  0.42175715  0.57752589  0.20944506  1
  Li  Li3  1  0.42175581  0.42247434  0.70954982  1
  Li  Li4  1  0.92264021  0.42189312  -0.04042799  1
  Li  Li5  1  0.42263111  0.07808089  -0.04047423  1
  Li  Li6  1  0.57768601  0.92191343  -0.04125671  1
  Li  Li7  1  0.92263786  0.57807265  0.45952278  1
  Li  Li8  1  0.07769345  0.42190617  0.45873850  1
  Li  Li9  1  0.92176468  0.92246070  0.20951623  1
  Li  Li10  1  0.42263301  0.92190775  0.45957773  1
  Li  Li11  1  0.07792865  0.07754131  0.20860449  1
  Li  Li12  1  0.57767800  0.07810759  0.45867266  1
  Li  Li13  1  0.92175876  0.07751401  0.70941039  1
  Li  Li14  1  0.07794925  0.92248310  0.70871994  1
  Li  Li15  1  0.57794207  0.42249220  0.20875150  1
  Br  Br16  1  0.89608983  0.60368874  0.95983369  1
  Br  Br17  1  0.10356393  0.89595356  0.20873515  1
  Br  Br18  1  0.10421080  0.60370800  0.45869565  1
  Br  Br19  1  0.10421877  0.39629445  0.95880528  1
  Br  Br20  1  0.89612980  0.10404662  0.20976966  1
  Br  Br21  1  0.39614171  0.39592411  0.20992247  1
  Br  Br22  1  0.60353925  0.60408597  0.20865675  1
  Br  Br23  1  0.89614963  0.89591001  0.70988792  1
  Br  Br24  1  0.10354055  0.10407592  0.70862301  1
  Br  Br25  1  0.60421022  0.89630949  0.45880950  1
  Br  Br26  1  0.39612916  0.60406136  0.70980557  1
  Br  Br27  1  0.39607812  0.10370121  0.45983932  1
  Br  Br28  1  0.60355607  0.39596166  0.70876619  1
  Br  Br29  1  0.60419926  0.10372166  0.95869713  1
  Br  Br30  1  0.39608351  0.89627763  0.95996110  1
  Br  Br31  1  0.89609255  0.39626605  0.45995408  1
