# generated using pymatgen
data_LiBr
_symmetry_space_group_name_H-M   'P 1'
_cell_length_a   10.31130706
_cell_length_b   10.31334808
_cell_length_c   7.92530700
_cell_angle_alpha   90.00006951
_cell_angle_beta   90.00002866
_cell_angle_gamma   89.99990561
_symmetry_Int_Tables_number   1
_chemical_formula_structural   LiBr
_chemical_formula_sum   'Li16 Br16'
_cell_volume   842.80963199
_cell_formula_units_Z   16
loop_
 _symmetry_equiv_pos_site_id
 _symmetry_equiv_pos_as_xyz
  1  'x, y, z'
loop_
 _atom_site_type_symbol
 _atom_site_label
 _atom_site_symmetry_multiplicity
 _atom_site_fract_x
 _atom_site_fract_y
 _atom_site_fract_z
 _atom_site_occupancy
  Li  Li0  1  0.33394231  0.49925224  0.96366307  1
  Li  Li1  1  -0.00088198  0.33392350  0.21429963  1
  Li  Li2  1  0.66605654  0.49925238  0.46366288  1
  Li  Li3  1  0.66605690  0.50074913  0.96366278  1
  Li  Li4  1  0.00088364  0.66607535  0.21430034  1
  Li  Li5  1  0.50088964  0.83391992  0.21430100  1
  Li  Li6  1  0.49911253  0.16607946  0.21430052  1
  Li  Li7  1  0.00088709  0.33392007  0.71430112  1
  Li  Li8  1  -0.00088821  0.66607954  0.71430061  1
  Li  Li9  1  0.16606021  0.00075445  0.46366376  1
  Li  Li10  1  0.50088277  0.16607524  0.71430034  1
  Li  Li11  1  0.83393887  -0.00075262  0.46366494  1
  Li  Li12  1  0.49911630  0.83392476  0.71430012  1
  Li  Li13  1  0.16605800  -0.00075278  0.96366419  1
  Li  Li14  1  0.83394254  0.00075016  0.96366438  1
  Li  Li15  1  0.33394223  0.50074826  0.46366435  1
  Br  Br16  1  0.99928011  0.81501699  0.96416648  1
  Br  Br17  1  0.31499217  0.99933505  0.21393432  1
  Br  Br18  1  0.00071935  0.81501788  0.46416704  1
  Br  Br19  1  0.00072099  0.18498085  0.96416601  1
  Br  Br20  1  0.68500832  0.00066648  0.21393432  1
  Br  Br21  1  0.18500857  0.49933509  0.21393318  1
  Br  Br22  1  0.81499227  0.50066359  0.21393317  1
  Br  Br23  1  0.68500779  0.99933567  0.71393444  1
  Br  Br24  1  0.31499200  0.00066497  0.71393433  1
  Br  Br25  1  0.50071711  0.68498229  0.46416654  1
  Br  Br26  1  0.18500746  0.50066554  0.71393390  1
  Br  Br27  1  0.49928176  0.31501820  0.46416691  1
  Br  Br28  1  0.81499163  0.49933388  0.71393367  1
  Br  Br29  1  0.50071893  0.31501845  0.96416665  1
  Br  Br30  1  0.49928221  0.68498339  0.96416656  1
  Br  Br31  1  0.99927994  0.18498264  0.46416668  1
