# generated using pymatgen
data_LiBr
_symmetry_space_group_name_H-M   'P 1'
_cell_length_a   8.54886394
_cell_length_b   7.05769779
_cell_length_c   6.98791346
_cell_angle_alpha   89.99988867
_cell_angle_beta   90.00000154
_cell_angle_gamma   90.00008609
_symmetry_Int_Tables_number   1
_chemical_formula_structural   LiBr
_chemical_formula_sum   'Li8 Br8'
_cell_volume   421.61784161
_cell_formula_units_Z   8
loop_
 _symmetry_equiv_pos_site_id
 _symmetry_equiv_pos_as_xyz
  1  'x, y, z'
loop_
 _atom_site_type_symbol
 _atom_site_label
 _atom_site_symmetry_multiplicity
 _atom_site_fract_x
 _atom_site_fract_y
 _atom_site_fract_z
 _atom_site_occupancy
  Li  Li0  1  0.13093107  0.40914840  0.84324837  1
  Li  Li1  1  0.13093075  0.09084777  0.34324153  1
  Li  Li2  1  0.63093319  0.09085114  0.15675351  1
  Li  Li3  1  0.36907062  0.59085049  0.34324707  1
  Li  Li4  1  0.86906804  0.90915358  0.65675503  1
  Li  Li5  1  0.36906717  0.90914738  0.84324662  1
  Li  Li6  1  0.63092914  0.40914928  0.65675385  1
  Li  Li7  1  0.86907031  0.59085192  0.15675232  1
  Br  Br8  1  0.36961847  0.57768806  0.71064960  1
  Br  Br9  1  0.36962218  0.92231191  0.21065152  1
  Br  Br10  1  0.86962010  0.92231011  0.28935160  1
  Br  Br11  1  0.13037948  0.42231365  0.21065367  1
  Br  Br12  1  0.63037797  0.07768716  0.78935010  1
  Br  Br13  1  0.13037987  0.07768912  0.71064961  1
  Br  Br14  1  0.86962028  0.57768840  0.78934805  1
  Br  Br15  1  0.63038138  0.42231163  0.28934753  1
