# generated using pymatgen
data_LiBr
_symmetry_space_group_name_H-M   'P 1'
_cell_length_a   11.92939559
_cell_length_b   11.92939759
_cell_length_c   7.29054042
_cell_angle_alpha   90.00041262
_cell_angle_beta   89.99957516
_cell_angle_gamma   120.00185098
_symmetry_Int_Tables_number   1
_chemical_formula_structural   LiBr
_chemical_formula_sum   'Li18 Br18'
_cell_volume   898.50232779
_cell_formula_units_Z   18
loop_
 _symmetry_equiv_pos_site_id
 _symmetry_equiv_pos_as_xyz
  1  'x, y, z'
loop_
 _atom_site_type_symbol
 _atom_site_label
 _atom_site_symmetry_multiplicity
 _atom_site_fract_x
 _atom_site_fract_y
 _atom_site_fract_z
 _atom_site_occupancy
  Li  Li0  1  0.29319509  0.45860239  0.57102307  1
  Li  Li1  1  0.29319661  0.83459659  0.07102325  1
  Li  Li2  1  0.87476593  0.37345456  0.73754663  1
  Li  Li3  1  0.49869315  0.12523594  0.73754618  1
  Li  Li4  1  0.20810754  0.16795759  0.90426006  1
  Li  Li5  1  0.54139754  0.83459002  0.57102017  1
  Li  Li6  1  0.49868253  0.37345540  0.23755052  1
  Li  Li7  1  0.87476436  0.50130762  0.23754463  1
  Li  Li8  1  0.16540361  0.70680363  0.57102396  1
  Li  Li9  1  0.16540993  0.45860198  0.07102040  1
  Li  Li10  1  0.62654545  0.12523449  0.23754660  1
  Li  Li11  1  0.62654475  0.50131743  0.73754772  1
  Li  Li12  1  0.83203555  0.04014636  0.90426577  1
  Li  Li13  1  0.83204228  0.79189263  0.40426064  1
  Li  Li14  1  0.54139734  0.70680480  0.07102403  1
  Li  Li15  1  0.20810612  0.04014206  0.40426406  1
  Li  Li16  1  -0.04014313  0.79189325  0.90426397  1
  Li  Li17  1  -0.04014628  0.16796465  0.40426549  1
  Br  Br18  1  0.37349535  0.87476589  0.73657380  1
  Br  Br19  1  0.37349566  0.49873078  0.23657085  1
  Br  Br20  1  0.45857216  0.29318253  0.90315008  1
  Br  Br21  1  0.83460609  0.54142485  0.90315138  1
  Br  Br22  1  0.79189707  0.83203526  0.06985524  1
  Br  Br23  1  0.12523726  0.49873157  0.73657637  1
  Br  Br24  1  0.83460817  0.29318208  0.40314712  1
  Br  Br25  1  0.45857509  0.16539337  0.40315112  1
  Br  Br26  1  0.50126861  0.62650442  0.73657086  1
  Br  Br27  1  0.50126860  0.87476290  0.23657555  1
  Br  Br28  1  0.70681794  0.54142809  0.40315046  1
  Br  Br29  1  0.70681852  0.16539286  0.90314762  1
  Br  Br30  1  0.16796383  0.95985916  0.06985743  1
  Br  Br31  1  0.16796433  0.20810250  0.56985556  1
  Br  Br32  1  0.12523485  0.62650468  0.23657423  1
  Br  Br33  1  0.79190013  0.95986261  0.56985783  1
  Br  Br34  1  0.04013770  0.20809943  0.06985793  1
  Br  Br35  1  0.04014027  0.83203563  0.56985715  1
