# generated using pymatgen
data_LiBr
_symmetry_space_group_name_H-M   'P 1'
_cell_length_a   7.77629625
_cell_length_b   7.78445978
_cell_length_c   11.01256578
_cell_angle_alpha   90.00005490
_cell_angle_beta   90.00003593
_cell_angle_gamma   90.00011422
_symmetry_Int_Tables_number   1
_chemical_formula_structural   LiBr
_chemical_formula_sum   'Li16 Br16'
_cell_volume   666.63757905
_cell_formula_units_Z   16
loop_
 _symmetry_equiv_pos_site_id
 _symmetry_equiv_pos_as_xyz
  1  'x, y, z'
loop_
 _atom_site_type_symbol
 _atom_site_label
 _atom_site_symmetry_multiplicity
 _atom_site_fract_x
 _atom_site_fract_y
 _atom_site_fract_z
 _atom_site_occupancy
  Li  Li0  1  0.75002825  0.00009320  0.35068298  1
  Li  Li1  1  0.50020972  0.74989700  0.60140237  1
  Li  Li2  1  0.24997117  0.00009491  0.85068792  1
  Li  Li3  1  0.24997104  -0.00009206  0.35068489  1
  Li  Li4  1  0.49979097  0.25010112  0.60140382  1
  Li  Li5  1  -0.00021023  0.24989469  0.60140511  1
  Li  Li6  1  0.00020970  0.75010262  0.60140594  1
  Li  Li7  1  0.49979140  0.74989720  0.10140172  1
  Li  Li8  1  0.50020865  0.25010185  0.10140181  1
  Li  Li9  1  0.74997068  0.49990418  0.85068781  1
  Li  Li10  1  -0.00021196  0.75010493  0.10140442  1
  Li  Li11  1  0.25002851  0.50009739  0.85068576  1
  Li  Li12  1  0.00021284  0.24990181  0.10140230  1
  Li  Li13  1  0.74997274  0.50009371  0.35068613  1
  Li  Li14  1  0.25002709  0.49990498  0.35068455  1
  Li  Li15  1  0.75002791  -0.00009577  0.85068653  1
  Br  Br16  1  0.00029283  0.74982262  0.85119490  1
  Br  Br17  1  0.24992022  0.00016705  0.10121437  1
  Br  Br18  1  -0.00029482  0.74982530  0.35120054  1
  Br  Br19  1  -0.00029200  0.25017722  0.85119650  1
  Br  Br20  1  0.75008042  -0.00016474  0.10121439  1
  Br  Br21  1  0.25007852  0.50016677  0.10121032  1
  Br  Br22  1  0.74992216  0.49983293  0.10121095  1
  Br  Br23  1  0.75008056  0.00016523  0.60120880  1
  Br  Br24  1  0.24991839  -0.00016863  0.60120999  1
  Br  Br25  1  0.49970672  0.75017716  0.35119996  1
  Br  Br26  1  0.25007765  0.49983367  0.60120994  1
  Br  Br27  1  0.50029459  0.24982225  0.35120058  1
  Br  Br28  1  0.74992160  0.50016771  0.60120992  1
  Br  Br29  1  0.49970687  0.24982597  0.85119743  1
  Br  Br30  1  0.50029327  0.75017339  0.85119713  1
  Br  Br31  1  0.00029453  0.25017435  0.35119854  1
