# generated using pymatgen
data_LiBr
_symmetry_space_group_name_H-M   'P 1'
_cell_length_a   3.91547770
_cell_length_b   3.91547511
_cell_length_c   9.31034991
_cell_angle_alpha   89.99973576
_cell_angle_beta   90.00032356
_cell_angle_gamma   120.00052584
_symmetry_Int_Tables_number   1
_chemical_formula_structural   LiBr
_chemical_formula_sum   'Li3 Br3'
_cell_volume   123.61283185
_cell_formula_units_Z   3
loop_
 _symmetry_equiv_pos_site_id
 _symmetry_equiv_pos_as_xyz
  1  'x, y, z'
loop_
 _atom_site_type_symbol
 _atom_site_label
 _atom_site_symmetry_multiplicity
 _atom_site_fract_x
 _atom_site_fract_y
 _atom_site_fract_z
 _atom_site_occupancy
  Li  Li0  1  0.33049580  0.99713769  0.93754619  1
  Li  Li1  1  0.00285139  0.33336360  0.27088027  1
  Li  Li2  1  0.66664911  0.66950704  0.60421409  1
  Br  Br3  1  0.33560601  0.00243279  0.43652760  1
  Br  Br4  1  -0.00243045  0.33316829  0.76986194  1
  Br  Br5  1  0.66682813  0.66439059  0.10319491  1
