# generated using pymatgen
data_LiBr
_symmetry_space_group_name_H-M   'P 1'
_cell_length_a   9.14659550
_cell_length_b   10.93623562
_cell_length_c   9.02462623
_cell_angle_alpha   90.00000188
_cell_angle_beta   90.00002150
_cell_angle_gamma   90.00230754
_symmetry_Int_Tables_number   1
_chemical_formula_structural   LiBr
_chemical_formula_sum   'Li16 Br16'
_cell_volume   902.72725604
_cell_formula_units_Z   16
loop_
 _symmetry_equiv_pos_site_id
 _symmetry_equiv_pos_as_xyz
  1  'x, y, z'
loop_
 _atom_site_type_symbol
 _atom_site_label
 _atom_site_symmetry_multiplicity
 _atom_site_fract_x
 _atom_site_fract_y
 _atom_site_fract_z
 _atom_site_occupancy
  Li  Li0  1  0.99968453  0.64969674  0.05743444  1
  Li  Li1  1  0.00031595  0.35030357  0.05743424  1
  Li  Li2  1  0.25034385  0.89970435  0.30743429  1
  Li  Li3  1  0.50031541  0.35030342  0.55743391  1
  Li  Li4  1  0.75034453  0.89970466  0.80743473  1
  Li  Li5  1  0.24965522  0.60029548  0.30743487  1
  Li  Li6  1  0.49968388  0.64969695  0.55743501  1
  Li  Li7  1  0.75034333  0.39970405  0.30743457  1
  Li  Li8  1  0.24965553  0.10029582  0.80743461  1
  Li  Li9  1  0.49968478  0.14969616  0.05743420  1
  Li  Li10  1  0.50031515  0.85030361  0.05743420  1
  Li  Li11  1  0.25034370  0.39970415  0.80743484  1
  Li  Li12  1  0.74965626  0.60029512  0.80743424  1
  Li  Li13  1  0.74965635  0.10029601  0.30743442  1
  Li  Li14  1  0.99968573  0.14969607  0.55743407  1
  Li  Li15  1  0.00031541  0.85030336  0.55743393  1
  Br  Br16  1  0.53578292  0.75054666  0.80704883  1
  Br  Br17  1  0.46421752  0.24945323  0.80704858  1
  Br  Br18  1  0.71421055  0.00054498  0.05705358  1
  Br  Br19  1  -0.03578203  0.24945323  0.30704838  1
  Br  Br20  1  0.21421107  0.00054507  0.55705315  1
  Br  Br21  1  0.78579016  0.49945506  0.05705394  1
  Br  Br22  1  0.03578208  0.75054693  0.30704834  1
  Br  Br23  1  0.21421049  0.50054532  0.05705318  1
  Br  Br24  1  0.78578999  0.99945503  0.55705344  1
  Br  Br25  1  0.03578199  0.25054696  0.80704802  1
  Br  Br26  1  -0.03578213  0.74945304  0.80704800  1
  Br  Br27  1  0.71420983  0.50054522  0.55705280  1
  Br  Br28  1  0.28578950  0.49945507  0.55705405  1
  Br  Br29  1  0.28578941  0.99945454  0.05705299  1
  Br  Br30  1  0.53578185  0.25054702  0.30704774  1
  Br  Br31  1  0.46421717  0.74945314  0.30704841  1
