# generated using pymatgen
data_LiBr
_symmetry_space_group_name_H-M   'P 1'
_cell_length_a   12.42348523
_cell_length_b   12.42353159
_cell_length_c   12.42369692
_cell_angle_alpha   89.99928441
_cell_angle_beta   89.99997580
_cell_angle_gamma   89.99996715
_symmetry_Int_Tables_number   1
_chemical_formula_structural   LiBr
_chemical_formula_sum   'Li24 Br24'
_cell_volume   1917.51762534
_cell_formula_units_Z   24
loop_
 _symmetry_equiv_pos_site_id
 _symmetry_equiv_pos_as_xyz
  1  'x, y, z'
loop_
 _atom_site_type_symbol
 _atom_site_label
 _atom_site_symmetry_multiplicity
 _atom_site_fract_x
 _atom_site_fract_y
 _atom_site_fract_z
 _atom_site_occupancy
  Li  Li0  1  0.16264039  0.42281203  0.25288371  1
  Li  Li1  1  0.66264203  0.07718500  0.74711093  1
  Li  Li2  1  0.75289483  0.16264833  0.07718146  1
  Li  Li3  1  0.75288966  0.33734928  0.57718904  1
  Li  Li4  1  0.92281157  0.24711466  0.83735324  1
  Li  Li5  1  0.25288952  0.16264818  0.42281238  1
  Li  Li6  1  0.74710944  0.66264643  0.07718190  1
  Li  Li7  1  0.24710062  0.83734529  0.92282119  1
  Li  Li8  1  0.57718551  0.75289144  0.33735438  1
  Li  Li9  1  0.42281482  0.25288403  0.16264817  1
  Li  Li10  1  0.07718727  0.74711164  0.66263704  1
  Li  Li11  1  0.83735005  0.92281218  0.24710950  1
  Li  Li12  1  0.33735260  0.57718463  0.75289193  1
  Li  Li13  1  0.74711062  0.83735429  0.57718450  1
  Li  Li14  1  0.25289200  0.33735896  0.92281553  1
  Li  Li15  1  0.24711393  0.66264207  0.42281143  1
  Li  Li16  1  0.07718827  0.75289094  0.16265179  1
  Li  Li17  1  0.42281622  0.24711175  0.66264394  1
  Li  Li18  1  0.57718721  0.74711398  0.83735272  1
  Li  Li19  1  0.92281448  0.25288615  0.33735922  1
  Li  Li20  1  0.16265152  0.07718880  0.75288945  1
  Li  Li21  1  0.66265140  0.42281290  0.24710834  1
  Li  Li22  1  0.83735615  0.57718663  0.74711294  1
  Li  Li23  1  0.33735281  0.92281784  0.25289109  1
  Br  Br24  1  0.10990884  0.60947598  0.29183827  1
  Br  Br25  1  0.60991086  0.89052420  0.70816342  1
  Br  Br26  1  0.79183504  0.10990274  0.89051794  1
  Br  Br27  1  0.79183485  0.39009162  0.39052713  1
  Br  Br28  1  0.10948015  0.20816156  0.89009873  1
  Br  Br29  1  0.29183753  0.10991570  0.60947393  1
  Br  Br30  1  0.70816392  0.60990953  0.89051762  1
  Br  Br31  1  0.20816566  0.89009278  0.10948455  1
  Br  Br32  1  0.39052018  0.79183466  0.39008484  1
  Br  Br33  1  0.60947853  0.29183727  0.10990322  1
  Br  Br34  1  0.89051920  0.70816413  0.60991283  1
  Br  Br35  1  0.89009733  0.10947921  0.20816340  1
  Br  Br36  1  0.39009346  0.39051763  0.79183265  1
  Br  Br37  1  0.70816625  0.89008653  0.39052249  1
  Br  Br38  1  0.29183767  0.39008987  0.10948105  1
  Br  Br39  1  0.20816887  0.60990898  0.60947668  1
  Br  Br40  1  0.89052040  0.79184161  0.10990781  1
  Br  Br41  1  0.60947710  0.20816827  0.60991476  1
  Br  Br42  1  0.39052062  0.70816273  0.89009233  1
  Br  Br43  1  0.10947863  0.29183466  0.39009037  1
  Br  Br44  1  0.10990102  0.89051877  0.79183602  1
  Br  Br45  1  0.60990380  0.60948150  0.20816541  1
  Br  Br46  1  0.89008982  0.39052516  0.70815945  1
  Br  Br47  1  0.39008735  0.10947745  0.29183928  1
