# generated using pymatgen
data_Na2O2
_symmetry_space_group_name_H-M   'P 1'
_cell_length_a   4.07324600
_cell_length_b   4.07895548
_cell_length_c   5.75841615
_cell_angle_alpha   90.00010871
_cell_angle_beta   90.01068857
_cell_angle_gamma   90.00001239
_symmetry_Int_Tables_number   1
_chemical_formula_structural   Na2O2
_chemical_formula_sum   'Na4 O4'
_cell_volume   95.67371640
_cell_formula_units_Z   2
loop_
 _symmetry_equiv_pos_site_id
 _symmetry_equiv_pos_as_xyz
  1  'x, y, z'
loop_
 _atom_site_type_symbol
 _atom_site_label
 _atom_site_symmetry_multiplicity
 _atom_site_fract_x
 _atom_site_fract_y
 _atom_site_fract_z
 _atom_site_occupancy
  Na  Na0  1  0.97987418  0.50064936  0.33244198  1
  Na  Na1  1  0.47988323  0.00065025  0.33244512  1
  Na  Na2  1  0.97987579  0.49934270  0.83242539  1
  Na  Na3  1  0.47988304  0.99935318  0.83242740  1
  O  O4  1  0.47992354  0.49966344  0.08231293  1
  O  O5  1  -0.02008038  -0.00032851  0.08230987  1
  O  O6  1  0.47992055  0.50033782  0.58231142  1
  O  O7  1  -0.02007894  0.00033177  0.58231220  1
