# generated using pymatgen
data_LiBr
_symmetry_space_group_name_H-M   'P 1'
_cell_length_a   4.50554110
_cell_length_b   7.80745440
_cell_length_c   5.55118183
_cell_angle_alpha   90.00000666
_cell_angle_beta   90.01639068
_cell_angle_gamma   89.99998604
_symmetry_Int_Tables_number   1
_chemical_formula_structural   LiBr
_chemical_formula_sum   'Li4 Br4'
_cell_volume   195.27284179
_cell_formula_units_Z   4
loop_
 _symmetry_equiv_pos_site_id
 _symmetry_equiv_pos_as_xyz
  1  'x, y, z'
loop_
 _atom_site_type_symbol
 _atom_site_label
 _atom_site_symmetry_multiplicity
 _atom_site_fract_x
 _atom_site_fract_y
 _atom_site_fract_z
 _atom_site_occupancy
  Li  Li0  1  0.58853729  0.33279760  0.11744037  1
  Li  Li1  1  0.08853304  0.83277680  0.11746630  1
  Li  Li2  1  0.58853768  0.66720287  0.61743977  1
  Li  Li3  1  0.08853360  0.16722165  0.61746315  1
  Br  Br4  1  0.08928911  0.16628917  0.11839989  1
  Br  Br5  1  0.58928705  0.66628697  0.11839895  1
  Br  Br6  1  0.08928909  0.83371109  0.61840006  1
  Br  Br7  1  0.58928725  0.33371384  0.61839902  1
