# generated using pymatgen
data_LiI
_symmetry_space_group_name_H-M   'P 1'
_cell_length_a   8.02748549
_cell_length_b   4.65370801
_cell_length_c   8.44655231
_cell_angle_alpha   90.00030032
_cell_angle_beta   124.78239919
_cell_angle_gamma   89.99868338
_symmetry_Int_Tables_number   1
_chemical_formula_structural   LiI
_chemical_formula_sum   'Li4 I4'
_cell_volume   259.16294591
_cell_formula_units_Z   4
loop_
 _symmetry_equiv_pos_site_id
 _symmetry_equiv_pos_as_xyz
  1  'x, y, z'
loop_
 _atom_site_type_symbol
 _atom_site_label
 _atom_site_symmetry_multiplicity
 _atom_site_fract_x
 _atom_site_fract_y
 _atom_site_fract_z
 _atom_site_occupancy
  Li  Li0  1  0.48080716  0.50149448  0.23861640  1
  Li  Li1  1  0.98080891  0.00148937  0.23861583  1
  Li  Li2  1  0.48081307  0.49851472  0.73861781  1
  Li  Li3  1  0.98080618  -0.00147853  0.73860756  1
  I  I4  1  0.21188846  0.50100308  0.34465878  1
  I  I5  1  0.71188434  0.00100831  0.34465104  1
  I  I6  1  0.21188947  0.49898747  0.84465596  1
  I  I7  1  0.71189325  0.99898111  0.84465618  1
