# generated using pymatgen
data_KI
_symmetry_space_group_name_H-M   'P 1'
_cell_length_a   8.60216817
_cell_length_b   4.98492889
_cell_length_c   8.67039945
_cell_angle_alpha   89.99999600
_cell_angle_beta   89.99999147
_cell_angle_gamma   89.99993161
_symmetry_Int_Tables_number   1
_chemical_formula_structural   KI
_chemical_formula_sum   'K4 I4'
_cell_volume   371.79710351
_cell_formula_units_Z   4
loop_
 _symmetry_equiv_pos_site_id
 _symmetry_equiv_pos_as_xyz
  1  'x, y, z'
loop_
 _atom_site_type_symbol
 _atom_site_label
 _atom_site_symmetry_multiplicity
 _atom_site_fract_x
 _atom_site_fract_y
 _atom_site_fract_z
 _atom_site_occupancy
  K  K0  1  0.75003350  0.24880063  0.47516263  1
  K  K1  1  0.25003272  0.75120005  0.47516294  1
  K  K2  1  0.24996717  0.75120101  0.97516326  1
  K  K3  1  0.74996653  0.24879849  0.97516213  1
  I  I4  1  0.08312003  0.25138811  0.22472347  1
  I  I5  1  0.58312053  0.74861190  0.22472422  1
  I  I6  1  0.91688041  0.74861049  0.72472363  1
  I  I7  1  0.41687910  0.25138931  0.72472396  1
