# generated using pymatgen
data_LiI
_symmetry_space_group_name_H-M   'P 1'
_cell_length_a   7.24959508
_cell_length_b   8.04294787
_cell_length_c   4.68948850
_cell_angle_alpha   90.00054339
_cell_angle_beta   89.99976535
_cell_angle_gamma   89.99995970
_symmetry_Int_Tables_number   1
_chemical_formula_structural   LiI
_chemical_formula_sum   'Li4 I4'
_cell_volume   273.43523644
_cell_formula_units_Z   4
loop_
 _symmetry_equiv_pos_site_id
 _symmetry_equiv_pos_as_xyz
  1  'x, y, z'
loop_
 _atom_site_type_symbol
 _atom_site_label
 _atom_site_symmetry_multiplicity
 _atom_site_fract_x
 _atom_site_fract_y
 _atom_site_fract_z
 _atom_site_occupancy
  Li  Li0  1  0.65261805  0.90641046  0.80937427  1
  Li  Li1  1  0.15261680  0.59359032  0.80937783  1
  Li  Li2  1  0.34736656  0.09357390  0.30936538  1
  Li  Li3  1  0.84736857  0.40642443  0.30935937  1
  I  I4  1  0.73523075  0.07724766  0.30965789  1
  I  I5  1  0.23523153  0.42275271  0.30965209  1
  I  I6  1  0.26478395  0.92272496  0.80964935  1
  I  I7  1  0.76478378  0.57727556  0.80965403  1
