# generated using pymatgen
data_LiBr
_symmetry_space_group_name_H-M   'P 1'
_cell_length_a   7.78820441
_cell_length_b   7.78820439
_cell_length_c   10.98681490
_cell_angle_alpha   90.00000591
_cell_angle_beta   90.00000078
_cell_angle_gamma   90.00002403
_symmetry_Int_Tables_number   1
_chemical_formula_structural   LiBr
_chemical_formula_sum   'Li16 Br16'
_cell_volume   666.41764844
_cell_formula_units_Z   16
loop_
 _symmetry_equiv_pos_site_id
 _symmetry_equiv_pos_as_xyz
  1  'x, y, z'
loop_
 _atom_site_type_symbol
 _atom_site_label
 _atom_site_symmetry_multiplicity
 _atom_site_fract_x
 _atom_site_fract_y
 _atom_site_fract_z
 _atom_site_occupancy
  Li  Li0  1  0.49994379  0.25096938  0.37296434  1
  Li  Li1  1  0.75096895  0.49994494  0.62296240  1
  Li  Li2  1  0.50005431  0.25097019  0.87296221  1
  Li  Li3  1  0.50005545  0.74903132  0.37296051  1
  Li  Li4  1  0.24903069  0.50005462  0.62296172  1
  Li  Li5  1  0.74903118  -0.00005432  0.62296261  1
  Li  Li6  1  0.25096995  0.00005478  0.62296366  1
  Li  Li7  1  0.24903012  0.49994530  0.12296177  1
  Li  Li8  1  0.75096865  0.50005393  0.12296194  1
  Li  Li9  1  0.00005484  0.24903025  0.87296205  1
  Li  Li10  1  0.74903088  0.00005489  0.12296184  1
  Li  Li11  1  -0.00005547  0.75096945  0.87296296  1
  Li  Li12  1  0.25096920  -0.00005534  0.12296342  1
  Li  Li13  1  0.00005552  0.75096908  0.37296462  1
  Li  Li14  1  -0.00005487  0.24903071  0.37296240  1
  Li  Li15  1  0.49994498  0.74902967  0.87296253  1
  Br  Br16  1  0.50063736  0.25042886  0.12327517  1
  Br  Br17  1  0.75042890  0.50063760  0.37327494  1
  Br  Br18  1  0.49936241  0.25042903  0.62327491  1
  Br  Br19  1  0.49936291  0.74957182  0.12327506  1
  Br  Br20  1  0.24957178  0.49936298  0.37327490  1
  Br  Br21  1  0.74957089  0.00063788  0.37327513  1
  Br  Br22  1  0.25042897  -0.00063731  0.37327511  1
  Br  Br23  1  0.24957137  0.50063747  0.87327515  1
  Br  Br24  1  0.75042874  0.49936223  0.87327499  1
  Br  Br25  1  -0.00063727  0.24957112  0.62327475  1
  Br  Br26  1  0.74957139  -0.00063753  0.87327510  1
  Br  Br27  1  0.00063741  0.75042882  0.62327496  1
  Br  Br28  1  0.25042895  0.00063727  0.87327522  1
  Br  Br29  1  -0.00063751  0.75042863  0.12327522  1
  Br  Br30  1  0.00063781  0.24957091  0.12327530  1
  Br  Br31  1  0.50063770  0.74957135  0.62327471  1
