# generated using pymatgen
data_LiBr
_symmetry_space_group_name_H-M   'P 1'
_cell_length_a   11.53058916
_cell_length_b   11.53057883
_cell_length_c   7.91145395
_cell_angle_alpha   90.00391863
_cell_angle_beta   89.99601701
_cell_angle_gamma   120.00571767
_symmetry_Int_Tables_number   1
_chemical_formula_structural   LiBr
_chemical_formula_sum   'Li18 Br18'
_cell_volume   910.88702920
_cell_formula_units_Z   18
loop_
 _symmetry_equiv_pos_site_id
 _symmetry_equiv_pos_as_xyz
  1  'x, y, z'
loop_
 _atom_site_type_symbol
 _atom_site_label
 _atom_site_symmetry_multiplicity
 _atom_site_fract_x
 _atom_site_fract_y
 _atom_site_fract_z
 _atom_site_occupancy
  Li  Li0  1  0.59319268  0.79912792  0.51309397  1
  Li  Li1  1  0.59319364  0.79406227  0.01309110  1
  Li  Li2  1  0.53418221  0.07346173  0.67975666  1
  Li  Li3  1  0.53928259  0.46580967  0.67976205  1
  Li  Li4  1  0.86754928  0.12737875  0.84641729  1
  Li  Li5  1  0.20086605  0.79406635  0.51308277  1
  Li  Li6  1  0.53927891  0.07346118  0.17975692  1
  Li  Li7  1  0.53418784  0.46071822  0.17976016  1
  Li  Li8  1  0.20594154  0.40681680  0.51308626  1
  Li  Li9  1  0.20593008  0.79913536  0.01308560  1
  Li  Li10  1  0.92653462  0.46581540  0.17974748  1
  Li  Li11  1  0.92653553  0.46071986  0.67975065  1
  Li  Li12  1  0.87262836  0.74017716  0.84642918  1
  Li  Li13  1  0.87262262  0.13245028  0.34641774  1
  Li  Li14  1  0.20087087  0.40680889  0.01308941  1
  Li  Li15  1  0.86753895  0.74017272  0.34642268  1
  Li  Li16  1  0.25982871  0.13246188  0.84642668  1
  Li  Li17  1  0.25982307  0.12737325  0.34643111  1
  Br  Br18  1  0.78917694  0.21492730  0.10670813  1
  Br  Br19  1  0.78918313  0.57425417  0.60670814  1
  Br  Br20  1  0.11840020  0.87750242  0.27337999  1
  Br  Br21  1  0.75908613  0.88158128  0.27337688  1
  Br  Br22  1  0.45177013  0.90759779  0.44007807  1
  Br  Br23  1  0.78507822  0.57424787  0.10670743  1
  Br  Br24  1  0.75908827  0.87749558  0.77337624  1
  Br  Br25  1  0.11842026  0.24091481  0.77337315  1
  Br  Br26  1  0.42574680  0.21081593  0.10671266  1
  Br  Br27  1  0.42575194  0.21491991  0.60670859  1
  Br  Br28  1  0.12249875  0.88160110  0.77337786  1
  Br  Br29  1  0.12250596  0.24091522  0.27337704  1
  Br  Br30  1  0.09239673  0.54416380  0.44007086  1
  Br  Br31  1  0.09239805  0.54822836  0.94007106  1
  Br  Br32  1  0.78507021  0.21082157  0.60670639  1
  Br  Br33  1  0.45176932  0.54416449  0.94009405  1
  Br  Br34  1  0.45583625  0.54823084  0.44009468  1
  Br  Br35  1  0.45583518  0.90759985  0.94007890  1
