# generated using pymatgen
data_LiBr
_symmetry_space_group_name_H-M   'P 1'
_cell_length_a   12.74951800
_cell_length_b   12.74951787
_cell_length_c   12.74952519
_cell_angle_alpha   90.00003427
_cell_angle_beta   90.00006714
_cell_angle_gamma   90.00003050
_symmetry_Int_Tables_number   1
_chemical_formula_structural   LiBr
_chemical_formula_sum   'Li24 Br24'
_cell_volume   2072.43796669
_cell_formula_units_Z   24
loop_
 _symmetry_equiv_pos_site_id
 _symmetry_equiv_pos_as_xyz
  1  'x, y, z'
loop_
 _atom_site_type_symbol
 _atom_site_label
 _atom_site_symmetry_multiplicity
 _atom_site_fract_x
 _atom_site_fract_y
 _atom_site_fract_z
 _atom_site_occupancy
  Li  Li0  1  0.36449651  0.84272609  0.63551900  1
  Li  Li1  1  0.13551933  0.34272544  0.13550384  1
  Li  Li2  1  0.36448073  0.63550390  0.84272594  1
  Li  Li3  1  0.63550365  0.84272517  0.36448052  1
  Li  Li4  1  0.86448058  0.34272550  0.86449582  1
  Li  Li5  1  0.15727470  0.63551932  0.63550414  1
  Li  Li6  1  0.15727428  0.36448080  0.36449633  1
  Li  Li7  1  0.84272553  0.36448049  0.63550350  1
  Li  Li8  1  0.84272571  0.63551910  0.36449610  1
  Li  Li9  1  0.63550393  0.15727470  0.63551971  1
  Li  Li10  1  0.13551938  0.65727422  0.86449690  1
  Li  Li11  1  0.36449609  0.15727468  0.36448049  1
  Li  Li12  1  0.86448051  0.65727451  0.13550401  1
  Li  Li13  1  0.34272554  0.13550369  0.13551944  1
  Li  Li14  1  0.36448060  0.36449626  0.15727419  1
  Li  Li15  1  0.65727434  0.86449618  0.13551933  1
  Li  Li16  1  0.63551934  0.36449633  0.84272537  1
  Li  Li17  1  0.34272542  0.86449634  0.86448041  1
  Li  Li18  1  0.63551923  0.63550375  0.15727451  1
  Li  Li19  1  0.65727464  0.13550383  0.86448076  1
  Li  Li20  1  0.86449625  0.86448043  0.34272530  1
  Li  Li21  1  0.86449635  0.13551910  0.65727402  1
  Li  Li22  1  0.13550361  0.13551941  0.34272596  1
  Li  Li23  1  0.13550381  0.86448084  0.65727453  1
  Br  Br24  1  0.73377688  0.73386403  0.01877023  1
  Br  Br25  1  0.51877042  0.23386411  0.76622304  1
  Br  Br26  1  -0.01877020  0.26622277  0.73386374  1
  Br  Br27  1  0.26622326  0.73386425  -0.01877006  1
  Br  Br28  1  0.48122969  0.23386432  0.23377702  1
  Br  Br29  1  0.26613558  0.01877026  0.26622321  1
  Br  Br30  1  0.26613575  -0.01877007  0.73377678  1
  Br  Br31  1  0.73386421  -0.01877048  0.26622297  1
  Br  Br32  1  0.73386425  0.01877015  0.73377703  1
  Br  Br33  1  0.26622291  0.26613582  0.01877032  1
  Br  Br34  1  0.51877012  0.76613580  0.23377698  1
  Br  Br35  1  0.73377701  0.26613595  -0.01877044  1
  Br  Br36  1  0.48122973  0.76613597  0.76622277  1
  Br  Br37  1  0.23386415  0.76622321  0.51877034  1
  Br  Br38  1  -0.01877003  0.73377675  0.26613577  1
  Br  Br39  1  0.76613584  0.23377678  0.51876983  1
  Br  Br40  1  0.01877029  0.73377697  0.73386466  1
  Br  Br41  1  0.23386408  0.23377716  0.48122980  1
  Br  Br42  1  0.01877013  0.26622312  0.26613604  1
  Br  Br43  1  0.76613607  0.76622287  0.48122990  1
  Br  Br44  1  0.23377677  0.48122982  0.23386403  1
  Br  Br45  1  0.23377703  0.51877026  0.76613631  1
  Br  Br46  1  0.76622296  0.51877033  0.23386445  1
  Br  Br47  1  0.76622304  0.48122973  0.76613513  1
