# generated using pymatgen
data_LiBr
_symmetry_space_group_name_H-M   'P 1'
_cell_length_a   6.87517885
_cell_length_b   6.69393996
_cell_length_c   4.56759585
_cell_angle_alpha   89.99969382
_cell_angle_beta   89.99951199
_cell_angle_gamma   90.00010224
_symmetry_Int_Tables_number   1
_chemical_formula_structural   LiBr
_chemical_formula_sum   'Li4 Br4'
_cell_volume   210.21005364
_cell_formula_units_Z   4
loop_
 _symmetry_equiv_pos_site_id
 _symmetry_equiv_pos_as_xyz
  1  'x, y, z'
loop_
 _atom_site_type_symbol
 _atom_site_label
 _atom_site_symmetry_multiplicity
 _atom_site_fract_x
 _atom_site_fract_y
 _atom_site_fract_z
 _atom_site_occupancy
  Li  Li0  1  0.10370050  0.10104347  0.50028965  1
  Li  Li1  1  0.89630081  0.60103867  -0.00029421  1
  Li  Li2  1  0.39629973  0.89896096  0.00028990  1
  Li  Li3  1  0.60369809  0.39895510  0.49971442  1
  Br  Br4  1  0.97523978  0.45044582  0.49982380  1
  Br  Br5  1  0.02476044  0.95045216  0.00017461  1
  Br  Br6  1  0.52475980  0.54954920  -0.00017137  1
  Br  Br7  1  0.47524085  0.04955462  0.50017320  1
