# generated using pymatgen
data_LiBr
_symmetry_space_group_name_H-M   'P 1'
_cell_length_a   10.04682951
_cell_length_b   10.04693005
_cell_length_c   8.44996600
_cell_angle_alpha   89.99978887
_cell_angle_beta   90.00021501
_cell_angle_gamma   89.99803912
_symmetry_Int_Tables_number   1
_chemical_formula_structural   LiBr
_chemical_formula_sum   'Li16 Br16'
_cell_volume   852.93782112
_cell_formula_units_Z   16
loop_
 _symmetry_equiv_pos_site_id
 _symmetry_equiv_pos_as_xyz
  1  'x, y, z'
loop_
 _atom_site_type_symbol
 _atom_site_label
 _atom_site_symmetry_multiplicity
 _atom_site_fract_x
 _atom_site_fract_y
 _atom_site_fract_z
 _atom_site_occupancy
  Li  Li0  1  0.16971633  0.49909109  0.87148863  1
  Li  Li1  1  -0.00091637  0.16972147  0.12151583  1
  Li  Li2  1  0.83029661  0.49908600  0.37148720  1
  Li  Li3  1  0.83027722  0.50094503  0.87148953  1
  Li  Li4  1  0.00090456  0.83029730  0.12150689  1
  Li  Li5  1  0.50092901  0.66970851  0.12144342  1
  Li  Li6  1  0.49905442  0.33027113  0.12149034  1
  Li  Li7  1  0.00091971  0.16972765  0.62155574  1
  Li  Li8  1  -0.00091082  0.83029213  0.62152214  1
  Li  Li9  1  0.33029723  0.00092459  0.37152225  1
  Li  Li10  1  0.50095348  0.33027828  0.62144535  1
  Li  Li11  1  0.66969297  -0.00093954  0.37150063  1
  Li  Li12  1  0.49908069  0.66970536  0.62143494  1
  Li  Li13  1  0.33027746  -0.00093330  0.87148937  1
  Li  Li14  1  0.66972007  0.00090757  0.87150935  1
  Li  Li15  1  0.16973281  0.50093829  0.37146570  1
  Br  Br16  1  0.50073544  0.19133974  0.37177492  1
  Br  Br17  1  0.69135267  0.50075069  0.62176906  1
  Br  Br18  1  0.49924660  0.19133539  0.87178905  1
  Br  Br19  1  0.49925678  0.80865386  0.37179428  1
  Br  Br20  1  0.30866762  0.49925889  0.62178785  1
  Br  Br21  1  0.80866581  0.00073790  0.62173508  1
  Br  Br22  1  0.19134596  -0.00074782  0.62174347  1
  Br  Br23  1  0.30864859  0.50076335  0.12175427  1
  Br  Br24  1  0.69133161  0.49924622  0.12177192  1
  Br  Br25  1  -0.00074042  0.30865908  0.87172780  1
  Br  Br26  1  0.80864032  -0.00073196  0.12174938  1
  Br  Br27  1  0.00073175  0.69134006  0.87174748  1
  Br  Br28  1  0.19132698  0.00072490  0.12175751  1
  Br  Br29  1  -0.00074986  0.69134922  0.37174850  1
  Br  Br30  1  0.00076273  0.30865962  0.37173483  1
  Br  Br31  1  0.50075209  0.80863932  0.87178920  1
