# generated using pymatgen
data_LiBr
_symmetry_space_group_name_H-M   'P 1'
_cell_length_a   6.65203218
_cell_length_b   6.74014044
_cell_length_c   11.44637737
_cell_angle_alpha   105.88071442
_cell_angle_beta   56.23396370
_cell_angle_gamma   119.55409912
_symmetry_Int_Tables_number   1
_chemical_formula_structural   LiBr
_chemical_formula_sum   'Li9 Br9'
_cell_volume   371.12558330
_cell_formula_units_Z   9
loop_
 _symmetry_equiv_pos_site_id
 _symmetry_equiv_pos_as_xyz
  1  'x, y, z'
loop_
 _atom_site_type_symbol
 _atom_site_label
 _atom_site_symmetry_multiplicity
 _atom_site_fract_x
 _atom_site_fract_y
 _atom_site_fract_z
 _atom_site_occupancy
  Li  Li0  1  0.74894233  0.00024574  0.73345083  1
  Li  Li1  1  0.41562911  0.33337398  0.39998526  1
  Li  Li2  1  0.08276519  0.66661383  0.40083838  1
  Li  Li3  1  0.74844988  -0.00019363  0.06679755  1
  Li  Li4  1  0.41603738  0.33346879  0.06646064  1
  Li  Li5  1  0.08307163  0.66663551  0.06737660  1
  Li  Li6  1  0.08241241  0.66673235  0.73429736  1
  Li  Li7  1  0.74930991  0.00012265  0.39989503  1
  Li  Li8  1  0.41632044  0.33335894  0.73291276  1
  Br  Br9  1  -0.08245203  0.33329757  0.56639215  1
  Br  Br10  1  -0.08252087  0.33313574  0.23301067  1
  Br  Br11  1  0.25070989  -0.00009272  0.23307397  1
  Br  Br12  1  0.25076861  -0.00001250  0.89969702  1
  Br  Br13  1  0.58424851  0.66663903  0.89936096  1
  Br  Br14  1  -0.08266547  0.33337373  0.89976719  1
  Br  Br15  1  0.58435788  0.66672010  0.56602913  1
  Br  Br16  1  0.58401147  0.66660665  0.23279222  1
  Br  Br17  1  0.25060374  -0.00002577  0.56645501  1
