# generated using pymatgen
data_NaI
_symmetry_space_group_name_H-M   'P 1'
_cell_length_a   7.99237276
_cell_length_b   4.61824364
_cell_length_c   9.22180541
_cell_angle_alpha   89.99989921
_cell_angle_beta   54.82177331
_cell_angle_gamma   89.99970429
_symmetry_Int_Tables_number   1
_chemical_formula_structural   NaI
_chemical_formula_sum   'Na4 I4'
_cell_volume   278.21719936
_cell_formula_units_Z   4
loop_
 _symmetry_equiv_pos_site_id
 _symmetry_equiv_pos_as_xyz
  1  'x, y, z'
loop_
 _atom_site_type_symbol
 _atom_site_label
 _atom_site_symmetry_multiplicity
 _atom_site_fract_x
 _atom_site_fract_y
 _atom_site_fract_z
 _atom_site_occupancy
  Na  Na0  1  0.74916145  0.24983251  0.74981036  1
  Na  Na1  1  0.25083618  0.74983648  0.75018982  1
  Na  Na2  1  0.25083856  0.75016755  0.25018957  1
  Na  Na3  1  0.74916378  0.25016355  0.24981024  1
  I  I4  1  0.24960178  0.25160100  0.00097857  1
  I  I5  1  0.75039683  0.75159541  0.49902148  1
  I  I6  1  0.75039824  0.74839895  -0.00097855  1
  I  I7  1  0.24960319  0.24840454  0.50097853  1
