# generated using pymatgen
data_LiI
_symmetry_space_group_name_H-M   'P 1'
_cell_length_a   7.74849539
_cell_length_b   7.74850598
_cell_length_c   4.62843032
_cell_angle_alpha   90.00003640
_cell_angle_beta   89.99998960
_cell_angle_gamma   89.99934893
_symmetry_Int_Tables_number   1
_chemical_formula_structural   LiI
_chemical_formula_sum   'Li4 I4'
_cell_volume   277.88754466
_cell_formula_units_Z   4
loop_
 _symmetry_equiv_pos_site_id
 _symmetry_equiv_pos_as_xyz
  1  'x, y, z'
loop_
 _atom_site_type_symbol
 _atom_site_label
 _atom_site_symmetry_multiplicity
 _atom_site_fract_x
 _atom_site_fract_y
 _atom_site_fract_z
 _atom_site_occupancy
  Li  Li0  1  0.33286680  0.83345793  0.79204298  1
  Li  Li1  1  0.83345535  0.66713607  0.29204630  1
  Li  Li2  1  0.66713373  0.16654193  0.79204887  1
  Li  Li3  1  0.16654483  0.33286347  0.29204702  1
  I  I4  1  0.80618917  0.30617207  0.29174422  1
  I  I5  1  0.30617099  0.19381048  0.79174143  1
  I  I6  1  0.19381083  0.69382813  0.29173910  1
  I  I7  1  0.69382829  0.80618991  0.79174183  1
