# generated using pymatgen
data_LiI
_symmetry_space_group_name_H-M   'P 1'
_cell_length_a   4.58496959
_cell_length_b   9.50477638
_cell_length_c   7.76269951
_cell_angle_alpha   89.99993973
_cell_angle_beta   123.91070686
_cell_angle_gamma   90.00000546
_symmetry_Int_Tables_number   1
_chemical_formula_structural   LiI
_chemical_formula_sum   'Li4 I4'
_cell_volume   280.75087141
_cell_formula_units_Z   4
loop_
 _symmetry_equiv_pos_site_id
 _symmetry_equiv_pos_as_xyz
  1  'x, y, z'
loop_
 _atom_site_type_symbol
 _atom_site_label
 _atom_site_symmetry_multiplicity
 _atom_site_fract_x
 _atom_site_fract_y
 _atom_site_fract_z
 _atom_site_occupancy
  Li  Li0  1  0.27820608  0.35360389  0.52678961  1
  Li  Li1  1  0.72179256  0.85360368  -0.02679060  1
  Li  Li2  1  0.72179696  0.64639628  0.47321044  1
  Li  Li3  1  0.27820436  0.14639649  0.02679053  1
  I  I4  1  0.44821342  0.62411967  0.71169990  1
  I  I5  1  0.55178740  0.12412016  0.78830054  1
  I  I6  1  0.55179126  0.37588016  0.28830163  1
  I  I7  1  0.44820796  0.87587967  0.21169795  1
