# generated using pymatgen
data_LiCl
_symmetry_space_group_name_H-M   'P 1'
_cell_length_a   12.16498725
_cell_length_b   3.56694057
_cell_length_c   6.92883961
_cell_angle_alpha   90.00000320
_cell_angle_beta   90.00009356
_cell_angle_gamma   90.00000630
_symmetry_Int_Tables_number   1
_chemical_formula_structural   LiCl
_chemical_formula_sum   'Li8 Cl8'
_cell_volume   300.65472962
_cell_formula_units_Z   8
loop_
 _symmetry_equiv_pos_site_id
 _symmetry_equiv_pos_as_xyz
  1  'x, y, z'
loop_
 _atom_site_type_symbol
 _atom_site_label
 _atom_site_symmetry_multiplicity
 _atom_site_fract_x
 _atom_site_fract_y
 _atom_site_fract_z
 _atom_site_occupancy
  Li  Li0  1  0.40982782  0.75090182  0.12404788  1
  Li  Li1  1  0.40982763  0.74909867  0.62404853  1
  Li  Li2  1  0.90982615  0.74909863  0.87595110  1
  Li  Li3  1  0.09017200  0.24909724  0.62404053  1
  Li  Li4  1  0.59017151  0.25090411  0.37596034  1
  Li  Li5  1  0.09017243  0.25090285  0.12403938  1
  Li  Li6  1  0.90982813  0.75090034  0.37595147  1
  Li  Li7  1  0.59017206  0.24909740  0.87595951  1
  Cl  Cl8  1  0.11125205  0.74936846  0.37423530  1
  Cl  Cl9  1  0.11125034  0.75063100  0.87423498  1
  Cl  Cl10  1  0.61125122  0.75063146  0.62576617  1
  Cl  Cl11  1  0.38874937  0.25063131  0.87423983  1
  Cl  Cl12  1  0.88874951  0.24936799  0.12575986  1
  Cl  Cl13  1  0.38874947  0.24936877  0.37423973  1
  Cl  Cl14  1  0.61125106  0.74936891  0.12576611  1
  Cl  Cl15  1  0.88874925  0.25063103  0.62575927  1
