# generated using pymatgen
data_LiI
_symmetry_space_group_name_H-M   'P 1'
_cell_length_a   5.34198734
_cell_length_b   5.32789980
_cell_length_c   18.14960181
_cell_angle_alpha   90.02447238
_cell_angle_beta   90.00654105
_cell_angle_gamma   90.00092423
_symmetry_Int_Tables_number   1
_chemical_formula_structural   LiI
_chemical_formula_sum   'Li8 I8'
_cell_volume   516.56617157
_cell_formula_units_Z   8
loop_
 _symmetry_equiv_pos_site_id
 _symmetry_equiv_pos_as_xyz
  1  'x, y, z'
loop_
 _atom_site_type_symbol
 _atom_site_label
 _atom_site_symmetry_multiplicity
 _atom_site_fract_x
 _atom_site_fract_y
 _atom_site_fract_z
 _atom_site_occupancy
  Li  Li0  1  0.49702714  0.75597856  0.67754463  1
  Li  Li1  1  0.75697865  0.49689590  0.32239035  1
  Li  Li2  1  -0.00287112  0.74367377  0.07238178  1
  Li  Li3  1  0.24305848  0.50310998  0.82238419  1
  Li  Li4  1  0.00286569  0.25636478  0.57243309  1
  Li  Li5  1  0.50296299  0.24396540  0.17749563  1
  Li  Li6  1  0.25727026  0.00301941  0.42769472  1
  Li  Li7  1  0.74273429  -0.00301742  0.92767751  1
  I  I8  1  0.50828319  0.06221425  0.56074716  1
  I  I9  1  0.06151942  0.50836774  0.43929538  1
  I  I10  1  0.00839048  0.43785108  0.18921223  1
  I  I11  1  -0.06154636  0.49164794  -0.06067009  1
  I  I12  1  -0.00839510  0.56208750  0.68917424  1
  I  I13  1  0.49170983  -0.06214466  0.06080194  1
  I  I14  1  0.56146103  -0.00848350  0.31072584  1
  I  I15  1  0.43855111  0.00846929  0.81071138  1
