# generated using pymatgen
data_LiI
_symmetry_space_group_name_H-M   'P 1'
_cell_length_a   15.50941234
_cell_length_b   15.50941147
_cell_length_c   15.50940654
_cell_angle_alpha   89.99998805
_cell_angle_beta   89.99994964
_cell_angle_gamma   89.99999057
_symmetry_Int_Tables_number   1
_chemical_formula_structural   LiI
_chemical_formula_sum   'Li48 I48'
_cell_volume   3730.66145974
_cell_formula_units_Z   48
loop_
 _symmetry_equiv_pos_site_id
 _symmetry_equiv_pos_as_xyz
  1  'x, y, z'
loop_
 _atom_site_type_symbol
 _atom_site_label
 _atom_site_symmetry_multiplicity
 _atom_site_fract_x
 _atom_site_fract_y
 _atom_site_fract_z
 _atom_site_occupancy
  Li  Li0  1  0.69968835  0.77642442  0.40589736  1
  Li  Li1  1  0.02642455  0.94968849  0.65589684  1
  Li  Li2  1  0.19968950  0.72357561  0.59410509  1
  Li  Li3  1  0.97357572  0.55031076  0.65589546  1
  Li  Li4  1  0.80031180  0.77642459  0.59410261  1
  Li  Li5  1  0.84410290  0.02642483  0.05031177  1
  Li  Li6  1  0.84410333  0.97357510  0.44968874  1
  Li  Li7  1  0.47357560  0.94968920  0.34410449  1
  Li  Li8  1  0.19968875  0.27642450  0.90589648  1
  Li  Li9  1  0.52642432  0.44968826  0.15589737  1
  Li  Li10  1  0.40589597  0.30031092  0.72357486  1
  Li  Li11  1  0.55031099  0.65589572  0.97357507  1
  Li  Li12  1  0.59410376  0.19968902  0.72357580  1
  Li  Li13  1  0.44968896  0.15589622  0.52642481  1
  Li  Li14  1  0.55031109  0.34410414  0.52642414  1
  Li  Li15  1  0.90589606  0.19968902  0.27642501  1
  Li  Li16  1  0.44968918  0.84410422  0.97357620  1
  Li  Li17  1  0.94968915  0.34410433  0.47357587  1
  Li  Li18  1  0.59410422  0.80031054  0.77642424  1
  Li  Li19  1  0.02642437  0.05031148  0.84410273  1
  Li  Li20  1  0.77642456  0.40589576  0.69968892  1
  Li  Li21  1  0.22357523  0.90589655  0.80031157  1
  Li  Li22  1  0.15589738  0.52642492  0.44968783  1
  Li  Li23  1  0.27642469  0.09410375  0.30031122  1
  Li  Li24  1  0.65589680  0.97357547  0.55031161  1
  Li  Li25  1  0.22357531  0.09410356  0.69968877  1
  Li  Li26  1  0.09410390  0.30031090  0.27642417  1
  Li  Li27  1  0.52642425  0.55031180  0.34410232  1
  Li  Li28  1  0.80031088  0.22357548  0.90589539  1
  Li  Li29  1  0.69968926  0.22357571  0.09410493  1
  Li  Li30  1  0.47357577  0.05031089  0.15589563  1
  Li  Li31  1  0.30031131  0.27642452  0.09410317  1
  Li  Li32  1  0.34410278  0.52642470  0.55031189  1
  Li  Li33  1  0.34410356  0.47357504  0.94968868  1
  Li  Li34  1  0.72357509  0.40589675  0.30031138  1
  Li  Li35  1  0.65589759  0.02642461  0.94968791  1
  Li  Li36  1  0.30031069  0.72357569  0.40589510  1
  Li  Li37  1  0.97357565  0.44968937  0.84410475  1
  Li  Li38  1  0.77642464  0.59410409  0.80031082  1
  Li  Li39  1  0.15589670  0.47357508  0.05031152  1
  Li  Li40  1  0.72357503  0.59410368  0.19968893  1
  Li  Li41  1  0.27642455  0.90589674  0.19968856  1
  Li  Li42  1  0.05031074  0.84410425  0.02642444  1
  Li  Li43  1  0.09410385  0.69968896  0.22357609  1
  Li  Li44  1  0.94968893  0.65589601  0.02642509  1
  Li  Li45  1  0.90589592  0.80031102  0.22357507  1
  Li  Li46  1  0.05031058  0.15589555  0.47357482  1
  Li  Li47  1  0.40589561  0.69968917  0.77642499  1
  I  I48  1  0.62552985  0.85112464  0.94140883  1
  I  I49  1  0.10112460  0.87552930  0.19140927  1
  I  I50  1  0.12552922  0.64887518  0.05859110  1
  I  I51  1  0.89887519  0.62447076  0.19140954  1
  I  I52  1  0.87447040  0.85112481  0.05859080  1
  I  I53  1  0.30859079  0.10112422  0.12447055  1
  I  I54  1  0.30859056  0.89887595  0.37552925  1
  I  I55  1  0.39887543  0.87552951  0.80859114  1
  I  I56  1  0.12552960  0.35112481  0.44140872  1
  I  I57  1  0.60112468  0.37552956  0.69140898  1
  I  I58  1  0.94140951  0.37447048  0.64887570  1
  I  I59  1  0.62447033  0.19140930  0.89887550  1
  I  I60  1  0.05859044  0.12552880  0.64887531  1
  I  I61  1  0.37552988  0.69140906  0.60112484  1
  I  I62  1  0.62447146  0.80859016  0.60112395  1
  I  I63  1  0.44140934  0.12552964  0.35112438  1
  I  I64  1  0.37552895  0.30859039  0.89887526  1
  I  I65  1  0.87552885  0.80859016  0.39887586  1
  I  I66  1  0.05859022  0.87447124  0.85112444  1
  I  I67  1  0.10112468  0.12447055  0.30859044  1
  I  I68  1  0.85112433  0.94140945  0.62552945  1
  I  I69  1  0.14887571  0.44140947  0.87447082  1
  I  I70  1  0.69140907  0.60112425  0.37552963  1
  I  I71  1  0.35112409  0.55859074  0.37447101  1
  I  I72  1  0.19140958  0.89887560  0.62447123  1
  I  I73  1  0.14887616  0.55859040  0.62552874  1
  I  I74  1  0.55858991  0.37447115  0.35112338  1
  I  I75  1  0.60112477  0.62447034  0.80859051  1
  I  I76  1  0.87447037  0.14887513  0.44140936  1
  I  I77  1  0.62552928  0.14887547  0.55859072  1
  I  I78  1  0.39887556  0.12447044  0.69140926  1
  I  I79  1  0.37447064  0.35112451  0.55859040  1
  I  I80  1  0.80859121  0.60112459  0.62447028  1
  I  I81  1  0.80859092  0.39887547  0.87552945  1
  I  I82  1  0.64887577  0.94140955  0.37447101  1
  I  I83  1  0.19140919  0.10112448  0.87552904  1
  I  I84  1  0.37447039  0.64887530  0.94140948  1
  I  I85  1  0.89887512  0.37552943  0.30859106  1
  I  I86  1  0.85112396  0.05859055  0.87447093  1
  I  I87  1  0.69140937  0.39887592  0.12447059  1
  I  I88  1  0.64887605  0.05859043  0.12552866  1
  I  I89  1  0.35112461  0.44140912  0.12552932  1
  I  I90  1  0.12447123  0.30859028  0.10112429  1
  I  I91  1  0.55859014  0.62552901  0.14887596  1
  I  I92  1  0.87552986  0.19140922  0.10112483  1
  I  I93  1  0.44140954  0.87447060  0.14887575  1
  I  I94  1  0.12447032  0.69140945  0.39887570  1
  I  I95  1  0.94140904  0.62552975  0.85112477  1
