# generated using pymatgen
data_LiI
_symmetry_space_group_name_H-M   'P 1'
_cell_length_a   4.39904838
_cell_length_b   4.39918168
_cell_length_c   13.61461760
_cell_angle_alpha   90.00057632
_cell_angle_beta   90.00055646
_cell_angle_gamma   90.00039073
_symmetry_Int_Tables_number   1
_chemical_formula_structural   LiI
_chemical_formula_sum   'Li4 I4'
_cell_volume   263.47298041
_cell_formula_units_Z   4
loop_
 _symmetry_equiv_pos_site_id
 _symmetry_equiv_pos_as_xyz
  1  'x, y, z'
loop_
 _atom_site_type_symbol
 _atom_site_label
 _atom_site_symmetry_multiplicity
 _atom_site_fract_x
 _atom_site_fract_y
 _atom_site_fract_z
 _atom_site_occupancy
  Li  Li0  1  0.49268799  0.49173681  0.12923871  1
  Li  Li1  1  0.49173653  0.50731472  0.87924140  1
  Li  Li2  1  0.50732317  0.50824337  0.62923894  1
  Li  Li3  1  0.50824556  0.49269851  0.37924191  1
  I  I4  1  0.00735769  0.50770408  0.50433002  1
  I  I5  1  0.50770355  -0.00735500  0.25432996  1
  I  I6  1  -0.00735921  0.49230458  0.00432972  1
  I  I7  1  0.49230471  0.00735292  0.75432966  1
