# generated using pymatgen
data_NaI
_symmetry_space_group_name_H-M   'P 1'
_cell_length_a   8.83182652
_cell_length_b   8.74920957
_cell_length_c   7.96173794
_cell_angle_alpha   89.99971367
_cell_angle_beta   89.99975544
_cell_angle_gamma   89.99948707
_symmetry_Int_Tables_number   1
_chemical_formula_structural   NaI
_chemical_formula_sum   'Na8 I8'
_cell_volume   615.21544142
_cell_formula_units_Z   8
loop_
 _symmetry_equiv_pos_site_id
 _symmetry_equiv_pos_as_xyz
  1  'x, y, z'
loop_
 _atom_site_type_symbol
 _atom_site_label
 _atom_site_symmetry_multiplicity
 _atom_site_fract_x
 _atom_site_fract_y
 _atom_site_fract_z
 _atom_site_occupancy
  Na  Na0  1  0.65264248  0.16361775  0.04291517  1
  Na  Na1  1  0.65264162  0.33638715  0.54293590  1
  Na  Na2  1  0.15264430  0.33638296  -0.04292425  1
  Na  Na3  1  0.84735602  0.83638727  0.54294629  1
  Na  Na4  1  0.34735796  0.66361269  0.45706440  1
  Na  Na5  1  0.84735628  0.66361742  0.04292431  1
  Na  Na6  1  0.15264435  0.16361248  0.45705378  1
  Na  Na7  1  0.34735705  0.83638236  -0.04291483  1
  I  I8  1  0.60488072  0.63939084  0.74057063  1
  I  I9  1  0.60488815  0.86061080  0.24056585  1
  I  I10  1  0.10488170  0.86060247  0.25943799  1
  I  I11  1  0.89511185  0.36060369  0.24055696  1
  I  I12  1  0.39511186  0.13938946  0.75943425  1
  I  I13  1  0.89511834  0.13939716  0.74056170  1
  I  I14  1  0.10488802  0.63939666  0.75944253  1
  I  I15  1  0.39511929  0.36060885  0.25942933  1
