# generated using pymatgen
data_KI
_symmetry_space_group_name_H-M   'P 1'
_cell_length_a   9.47017232
_cell_length_b   9.76317534
_cell_length_c   4.52613878
_cell_angle_alpha   89.99999878
_cell_angle_beta   90.00036713
_cell_angle_gamma   90.00000843
_symmetry_Int_Tables_number   1
_chemical_formula_structural   KI
_chemical_formula_sum   'K4 I4'
_cell_volume   418.48205225
_cell_formula_units_Z   4
loop_
 _symmetry_equiv_pos_site_id
 _symmetry_equiv_pos_as_xyz
  1  'x, y, z'
loop_
 _atom_site_type_symbol
 _atom_site_label
 _atom_site_symmetry_multiplicity
 _atom_site_fract_x
 _atom_site_fract_y
 _atom_site_fract_z
 _atom_site_occupancy
  K  K0  1  0.35706752  0.35005266  0.49958562  1
  K  K1  1  0.14293239  0.85005279  0.50041432  1
  K  K2  1  0.64293269  0.64994769  0.49959000  1
  K  K3  1  0.85706740  0.14994756  0.50041011  1
  I  I4  1  0.83487904  0.85344455  -0.00022578  1
  I  I5  1  0.66512095  0.35344457  0.00022574  1
  I  I6  1  0.16512044  0.14655510  -0.00022890  1
  I  I7  1  0.33487958  0.64655509  0.00022889  1
