# generated using pymatgen
data_LiBr
_symmetry_space_group_name_H-M   'P 1'
_cell_length_a   11.90982273
_cell_length_b   11.90981967
_cell_length_c   7.30173903
_cell_angle_alpha   90.00200992
_cell_angle_beta   89.99798422
_cell_angle_gamma   120.00688083
_symmetry_Int_Tables_number   1
_chemical_formula_structural   LiBr
_chemical_formula_sum   'Li18 Br18'
_cell_volume   896.88612506
_cell_formula_units_Z   18
loop_
 _symmetry_equiv_pos_site_id
 _symmetry_equiv_pos_as_xyz
  1  'x, y, z'
loop_
 _atom_site_type_symbol
 _atom_site_label
 _atom_site_symmetry_multiplicity
 _atom_site_fract_x
 _atom_site_fract_y
 _atom_site_fract_z
 _atom_site_occupancy
  Li  Li0  1  -0.04252445  0.79203935  0.45133970  1
  Li  Li1  1  -0.04250177  0.16546967  0.95137320  1
  Li  Li2  1  0.54129144  0.70918956  0.61800502  1
  Li  Li3  1  0.16788520  0.45869538  0.61800930  1
  Li  Li4  1  0.87463605  0.49878084  0.78467610  1
  Li  Li5  1  0.20796934  0.16544484  0.45134080  1
  Li  Li6  1  0.16786275  0.70916833  0.11803948  1
  Li  Li7  1  0.54130619  0.83211524  0.11800979  1
  Li  Li8  1  0.83452905  0.04249968  0.45137094  1
  Li  Li9  1  0.83455180  0.79202701  0.95134399  1
  Li  Li10  1  0.29080852  0.45870694  0.11800630  1
  Li  Li11  1  0.29083263  0.83213679  0.61803804  1
  Li  Li12  1  0.50119679  0.37583371  0.78470212  1
  Li  Li13  1  0.50122195  0.12536516  0.28467239  1
  Li  Li14  1  0.20795939  0.04252426  0.95133671  1
  Li  Li15  1  0.87462725  0.37585926  0.28467286  1
  Li  Li16  1  0.62414332  0.12537546  0.78467134  1
  Li  Li17  1  0.62416789  0.49880252  0.28470138  1
  Br  Br18  1  0.16596069  0.20867469  0.11867272  1
  Br  Br19  1  0.16594934  0.95728688  0.61866314  1
  Br  Br20  1  0.12465838  0.50070555  0.28534075  1
  Br  Br21  1  0.37605328  0.87532309  0.28535281  1
  Br  Br22  1  0.45801098  0.29061376  0.45201913  1
  Br  Br23  1  0.79134366  0.95728043  0.11868622  1
  Br  Br24  1  0.37604512  0.50071639  0.78533019  1
  Br  Br25  1  0.12467771  0.62394738  0.78535584  1
  Br  Br26  1  0.04271260  0.83405041  0.11866233  1
  Br  Br27  1  0.04271899  0.20865484  0.61868724  1
  Br  Br28  1  0.49929542  0.87534282  0.78533643  1
  Br  Br29  1  0.49928302  0.62395476  0.28532820  1
  Br  Br30  1  0.70937964  0.16738388  0.45199393  1
  Br  Br31  1  0.70938581  0.54198956  0.95202054  1
  Br  Br32  1  0.79132399  0.83403800  0.61867145  1
  Br  Br33  1  0.45799209  0.16737249  0.95200471  1
  Br  Br34  1  0.83262830  0.54200892  0.45200756  1
  Br  Br35  1  0.83261765  0.29062215  0.95199553  1
