# generated using pymatgen
data_LiI
_symmetry_space_group_name_H-M   'P 1'
_cell_length_a   13.40771311
_cell_length_b   13.40772191
_cell_length_c   5.54887851
_cell_angle_alpha   90.00043486
_cell_angle_beta   89.99977924
_cell_angle_gamma   89.99995018
_symmetry_Int_Tables_number   1
_chemical_formula_structural   LiI
_chemical_formula_sum   'Li16 I16'
_cell_volume   997.50462650
_cell_formula_units_Z   16
loop_
 _symmetry_equiv_pos_site_id
 _symmetry_equiv_pos_as_xyz
  1  'x, y, z'
loop_
 _atom_site_type_symbol
 _atom_site_label
 _atom_site_symmetry_multiplicity
 _atom_site_fract_x
 _atom_site_fract_y
 _atom_site_fract_z
 _atom_site_occupancy
  Li  Li0  1  0.44709245  0.73972108  0.90209856  1
  Li  Li1  1  0.23972376  0.44709382  0.15210685  1
  Li  Li2  1  0.55290652  0.73972109  0.40209937  1
  Li  Li3  1  0.55290750  0.26028030  0.90210204  1
  Li  Li4  1  0.76027989  0.55290819  0.15209818  1
  Li  Li5  1  0.26027816  0.94709209  0.15210059  1
  Li  Li6  1  0.73972276  0.05290766  0.15210076  1
  Li  Li7  1  0.76027853  0.44709292  0.65210021  1
  Li  Li8  1  0.23972027  0.55290792  0.65210453  1
  Li  Li9  1  0.05290879  0.76027838  0.40209804  1
  Li  Li10  1  0.26027629  0.05290715  0.65210041  1
  Li  Li11  1  0.94709489  0.23972178  0.40210389  1
  Li  Li12  1  0.73972216  0.94709159  0.65210188  1
  Li  Li13  1  0.05290667  0.23972392  0.90210538  1
  Li  Li14  1  0.94709293  0.76027760  0.90209821  1
  Li  Li15  1  0.44709137  0.26027995  0.40210229  1
  I  I16  1  0.38386904  0.61337952  0.29212154  1
  I  I17  1  0.11337632  0.38386644  0.54212003  1
  I  I18  1  0.61613001  0.61337844  0.79211955  1
  I  I19  1  0.61612725  0.38662182  0.29212031  1
  I  I20  1  0.88662011  0.61612694  0.54212212  1
  I  I21  1  0.38662235  0.88387078  0.54212161  1
  I  I22  1  0.61337872  0.11613170  0.54212146  1
  I  I23  1  0.88662105  0.38386791  0.04212118  1
  I  I24  1  0.11337729  0.61612752  0.04212318  1
  I  I25  1  0.11613279  0.88662139  0.79212057  1
  I  I26  1  0.38662412  0.11613332  0.04211754  1
  I  I27  1  0.88387022  0.11337502  0.79211804  1
  I  I28  1  0.61337964  0.88387107  0.04212424  1
  I  I29  1  0.11612985  0.11337687  0.29211945  1
  I  I30  1  0.88386638  0.88662410  0.29211815  1
  I  I31  1  0.38387189  0.38662170  0.79212200  1
