# generated using pymatgen
data_LiBr
_symmetry_space_group_name_H-M   'P 1'
_cell_length_a   7.20567602
_cell_length_b   4.17601058
_cell_length_c   7.17995486
_cell_angle_alpha   90.00000737
_cell_angle_beta   109.02893024
_cell_angle_gamma   90.00001043
_symmetry_Int_Tables_number   1
_chemical_formula_structural   LiBr
_chemical_formula_sum   'Li4 Br4'
_cell_volume   204.24551682
_cell_formula_units_Z   4
loop_
 _symmetry_equiv_pos_site_id
 _symmetry_equiv_pos_as_xyz
  1  'x, y, z'
loop_
 _atom_site_type_symbol
 _atom_site_label
 _atom_site_symmetry_multiplicity
 _atom_site_fract_x
 _atom_site_fract_y
 _atom_site_fract_z
 _atom_site_occupancy
  Li  Li0  1  0.63490382  0.75002384  0.45239392  1
  Li  Li1  1  0.13490209  0.25002655  0.45239723  1
  Li  Li2  1  0.63490513  0.24997377  0.95239420  1
  Li  Li3  1  0.13490776  0.74997592  0.95239575  1
  Br  Br4  1  0.26041077  0.74930654  0.32788644  1
  Br  Br5  1  0.76041017  0.24930440  0.32788367  1
  Br  Br6  1  0.26041336  0.25069515  0.82788579  1
  Br  Br7  1  0.76041402  0.75069384  0.82788446  1
