# generated using pymatgen
data_LiBr
_symmetry_space_group_name_H-M   'P 1'
_cell_length_a   7.18918204
_cell_length_b   7.18911897
_cell_length_c   9.12394387
_cell_angle_alpha   89.99998342
_cell_angle_beta   89.99996639
_cell_angle_gamma   90.00017954
_symmetry_Int_Tables_number   1
_chemical_formula_structural   LiBr
_chemical_formula_sum   'Li8 Br8'
_cell_volume   471.56086609
_cell_formula_units_Z   8
loop_
 _symmetry_equiv_pos_site_id
 _symmetry_equiv_pos_as_xyz
  1  'x, y, z'
loop_
 _atom_site_type_symbol
 _atom_site_label
 _atom_site_symmetry_multiplicity
 _atom_site_fract_x
 _atom_site_fract_y
 _atom_site_fract_z
 _atom_site_occupancy
  Li  Li0  1  0.84802460  0.16885503  0.13691946  1
  Li  Li1  1  0.33114970  0.65197477  0.63692366  1
  Li  Li2  1  0.34802791  0.33114881  0.36307679  1
  Li  Li3  1  0.66885260  0.34802505  0.63691873  1
  Li  Li4  1  0.65197187  0.66885167  0.36307864  1
  Li  Li5  1  0.15197275  0.83114512  0.13692469  1
  Li  Li6  1  0.83115594  0.84802796  0.86307637  1
  Li  Li7  1  0.16884465  0.15197146  0.86307721  1
  Br  Br8  1  0.70440273  0.31618083  0.35750147  1
  Br  Br9  1  0.18382093  0.79559388  0.85750638  1
  Br  Br10  1  0.20439953  0.18381976  0.14249671  1
  Br  Br11  1  0.81617946  0.20440446  0.85750128  1
  Br  Br12  1  0.79559768  0.81618137  0.14249710  1
  Br  Br13  1  0.29559692  0.68382020  0.35750621  1
  Br  Br14  1  0.68382038  0.70440391  0.64249747  1
  Br  Br15  1  0.31618235  0.29559572  0.64249786  1
