# generated using pymatgen
data_LiBr
_symmetry_space_group_name_H-M   'P 1'
_cell_length_a   3.89031294
_cell_length_b   3.89031260
_cell_length_c   11.02201044
_cell_angle_alpha   89.99999005
_cell_angle_beta   90.00000123
_cell_angle_gamma   90.00007611
_symmetry_Int_Tables_number   1
_chemical_formula_structural   LiBr
_chemical_formula_sum   'Li4 Br4'
_cell_volume   166.81298557
_cell_formula_units_Z   4
loop_
 _symmetry_equiv_pos_site_id
 _symmetry_equiv_pos_as_xyz
  1  'x, y, z'
loop_
 _atom_site_type_symbol
 _atom_site_label
 _atom_site_symmetry_multiplicity
 _atom_site_fract_x
 _atom_site_fract_y
 _atom_site_fract_z
 _atom_site_occupancy
  Li  Li0  1  0.00269285  0.50176127  0.25811466  1
  Li  Li1  1  0.50177104  -0.00270347  0.50811323  1
  Li  Li2  1  -0.00271580  0.49824463  0.75811643  1
  Li  Li3  1  0.49824777  0.00270481  0.00811346  1
  Br  Br4  1  0.49848814  -0.00079699  0.75857490  1
  Br  Br5  1  -0.00079299  0.50150743  0.00857505  1
  Br  Br6  1  0.50150900  0.00079324  0.25857490  1
  Br  Br7  1  0.00079999  0.49848909  0.50857481  1
