# generated using pymatgen
data_LiBr
_symmetry_space_group_name_H-M   'P 1'
_cell_length_a   3.89471637
_cell_length_b   3.89461775
_cell_length_c   9.54869157
_cell_angle_alpha   90.00164234
_cell_angle_beta   89.99885574
_cell_angle_gamma   119.99983507
_symmetry_Int_Tables_number   1
_chemical_formula_structural   LiBr
_chemical_formula_sum   'Li3 Br3'
_cell_volume   125.43417945
_cell_formula_units_Z   3
loop_
 _symmetry_equiv_pos_site_id
 _symmetry_equiv_pos_as_xyz
  1  'x, y, z'
loop_
 _atom_site_type_symbol
 _atom_site_label
 _atom_site_symmetry_multiplicity
 _atom_site_fract_x
 _atom_site_fract_y
 _atom_site_fract_z
 _atom_site_occupancy
  Li  Li0  1  0.33700364  0.00322519  0.94571066  1
  Li  Li1  1  -0.00334190  0.33385077  0.61239288  1
  Li  Li2  1  0.66618059  0.66285946  0.27904628  1
  Br  Br3  1  0.33045901  -0.00270465  0.44703547  1
  Br  Br4  1  0.00280622  0.33315411  0.11369806  1
  Br  Br5  1  0.66689243  0.66961511  0.78036330  1
