# generated using pymatgen
data_LiI
_symmetry_space_group_name_H-M   'P 1'
_cell_length_a   12.33770840
_cell_length_b   12.33749329
_cell_length_c   11.96953148
_cell_angle_alpha   90.00261966
_cell_angle_beta   89.99769621
_cell_angle_gamma   120.00433435
_symmetry_Int_Tables_number   1
_chemical_formula_structural   LiI
_chemical_formula_sum   'Li18 I18'
_cell_volume   1577.79379485
_cell_formula_units_Z   18
loop_
 _symmetry_equiv_pos_site_id
 _symmetry_equiv_pos_as_xyz
  1  'x, y, z'
loop_
 _atom_site_type_symbol
 _atom_site_label
 _atom_site_symmetry_multiplicity
 _atom_site_fract_x
 _atom_site_fract_y
 _atom_site_fract_z
 _atom_site_occupancy
  Li  Li0  1  0.76839100  0.79557435  0.90742250  1
  Li  Li1  1  0.63949092  0.10174212  0.42590377  1
  Li  Li2  1  0.23160931  0.20442626  0.09257636  1
  Li  Li3  1  0.02717746  0.23159182  0.90742823  1
  Li  Li4  1  0.46223972  0.36050849  0.42591159  1
  Li  Li5  1  0.79557252  0.02717385  0.09257683  1
  Li  Li6  1  0.87109589  0.30616032  0.24075675  1
  Li  Li7  1  0.20442758  0.97282601  0.90742319  1
  Li  Li8  1  0.97282245  0.76840776  0.09257089  1
  Li  Li9  1  0.12890479  0.69384015  0.75924244  1
  Li  Li10  1  0.53775987  0.63949137  0.57408974  1
  Li  Li11  1  0.69384436  0.56492500  0.24076348  1
  Li  Li12  1  0.30615580  0.43507565  0.75923716  1
  Li  Li13  1  0.36050965  0.89825831  0.57409708  1
  Li  Li14  1  0.43505713  0.12890687  0.24075672  1
  Li  Li15  1  0.56494261  0.87109299  0.75924329  1
  Li  Li16  1  0.89827358  0.53775671  0.42591311  1
  Li  Li17  1  0.10172597  0.46224281  0.57408810  1
  I  I18  1  0.76440552  0.79305403  0.13980006  1
  I  I19  1  0.63800762  0.09773320  0.19353293  1
  I  I20  1  0.23559645  0.20694753  0.86019976  1
  I  I21  1  0.02866093  0.23560272  0.13979855  1
  I  I22  1  0.45972708  0.36198223  0.19354145  1
  I  I23  1  0.79305979  0.02864922  0.86020636  1
  I  I24  1  -0.12639107  0.30468264  0.47312639  1
  I  I25  1  0.20693981  0.97135151  0.13979294  1
  I  I26  1  0.97133970  0.76439803  0.86020029  1
  I  I27  1  0.12639155  0.69531715  0.52687293  1
  I  I28  1  0.54027258  0.63801690  0.80645946  1
  I  I29  1  0.69532573  0.56893571  0.47313477  1
  I  I30  1  0.30467282  0.43106318  0.52686576  1
  I  I31  1  0.36199254  -0.09773345  0.80646732  1
  I  I32  1  0.43107299  0.12638819  0.47313268  1
  I  I33  1  0.56892723  -0.12638885  0.52686647  1
  I  I34  1  -0.09773715  0.54028013  0.19353581  1
  I  I35  1  0.09773529  0.45971910  0.80646484  1
