# generated using pymatgen
data_KI
_symmetry_space_group_name_H-M   'P 1'
_cell_length_a   10.08957205
_cell_length_b   5.11493258
_cell_length_c   7.18804860
_cell_angle_alpha   89.99999980
_cell_angle_beta   90.00000125
_cell_angle_gamma   90.00066236
_symmetry_Int_Tables_number   1
_chemical_formula_structural   KI
_chemical_formula_sum   'K4 I4'
_cell_volume   370.95707986
_cell_formula_units_Z   4
loop_
 _symmetry_equiv_pos_site_id
 _symmetry_equiv_pos_as_xyz
  1  'x, y, z'
loop_
 _atom_site_type_symbol
 _atom_site_label
 _atom_site_symmetry_multiplicity
 _atom_site_fract_x
 _atom_site_fract_y
 _atom_site_fract_z
 _atom_site_occupancy
  K  K0  1  0.12344758  0.24914956  0.46647854  1
  K  K1  1  0.62344759  0.25085034  0.46647851  1
  K  K2  1  0.87655242  0.75085044  -0.03352155  1
  K  K3  1  0.37655241  0.74914966  -0.03352158  1
  I  I4  1  0.87406943  0.74994225  0.46662638  1
  I  I5  1  0.37406941  0.75005781  0.46662636  1
  I  I6  1  0.12593057  0.25005774  0.96662645  1
  I  I7  1  0.62593059  0.24994220  0.96662641  1
