# generated using pymatgen
data_LiBr
_symmetry_space_group_name_H-M   'P 1'
_cell_length_a   11.90477695
_cell_length_b   11.90477030
_cell_length_c   7.31329339
_cell_angle_alpha   90.00082302
_cell_angle_beta   89.99910638
_cell_angle_gamma   120.00667320
_symmetry_Int_Tables_number   1
_chemical_formula_structural   LiBr
_chemical_formula_sum   'Li18 Br18'
_cell_volume   897.54597542
_cell_formula_units_Z   18
loop_
 _symmetry_equiv_pos_site_id
 _symmetry_equiv_pos_as_xyz
  1  'x, y, z'
loop_
 _atom_site_type_symbol
 _atom_site_label
 _atom_site_symmetry_multiplicity
 _atom_site_fract_x
 _atom_site_fract_y
 _atom_site_fract_z
 _atom_site_occupancy
  Li  Li0  1  0.16565281  0.45815166  0.04010613  1
  Li  Li1  1  0.16564840  0.70751186  0.54010657  1
  Li  Li2  1  0.87519288  0.50103265  0.20669584  1
  Li  Li3  1  0.62583584  0.12479891  0.20668145  1
  Li  Li4  1  0.20851353  0.04083275  0.37338374  1
  Li  Li5  1  0.54186176  0.70750767  0.04009389  1
  Li  Li6  1  0.62582900  0.50103090  0.70670292  1
  Li  Li7  1  0.87520249  0.37416490  0.70668244  1
  Li  Li8  1  0.29248917  0.83435314  0.04010964  1
  Li  Li9  1  0.29249724  0.45814206  0.54009283  1
  Li  Li10  1  0.49896921  0.12480620  0.70669546  1
  Li  Li11  1  0.49896358  0.37416977  0.20669826  1
  Li  Li12  1  0.95915896  0.16767812  0.37339487  1
  Li  Li13  1  0.95916736  0.79148575  0.87338504  1
  Li  Li14  1  0.54185087  0.83434491  0.54011038  1
  Li  Li15  1  0.20850436  0.16767117  0.87339419  1
  Li  Li16  1  0.83232529  0.79149325  0.37339868  1
  Li  Li17  1  0.83232174  0.04084039  0.87339561  1
  Br  Br18  1  0.50061709  0.62586331  0.70595662  1
  Br  Br19  1  0.50061660  0.87475436  0.20596962  1
  Br  Br20  1  0.70745372  0.16601999  0.87256361  1
  Br  Br21  1  0.45856739  0.29253673  0.87258601  1
  Br  Br22  1  0.04080402  0.20809590  0.03928526  1
  Br  Br23  1  0.37414577  0.87475420  0.70597780  1
  Br  Br24  1  0.45856856  0.16602263  0.37258152  1
  Br  Br25  1  0.70746350  0.54143431  0.37258310  1
  Br  Br26  1  0.12524677  0.49938388  0.70596619  1
  Br  Br27  1  0.12524227  0.62585531  0.20597447  1
  Br  Br28  1  0.83397981  0.29254711  0.37256424  1
  Br  Br29  1  0.83397524  0.54143110  0.87258016  1
  Br  Br30  1  0.79190883  0.83270611  0.03928054  1
  Br  Br31  1  0.79190561  0.95919544  0.53928796  1
  Br  Br32  1  0.37413686  0.49938377  0.20595841  1
  Br  Br33  1  0.04079560  0.83270478  0.53926823  1
  Br  Br34  1  0.16729331  0.95920303  0.03926946  1
  Br  Br35  1  0.16729455  0.20809201  0.53927678  1
