# generated using pymatgen
data_LiBr
_symmetry_space_group_name_H-M   'P 1'
_cell_length_a   12.57382207
_cell_length_b   11.37702697
_cell_length_c   12.46898965
_cell_angle_alpha   90.00003594
_cell_angle_beta   90.00002063
_cell_angle_gamma   90.00001774
_symmetry_Int_Tables_number   1
_chemical_formula_structural   LiBr
_chemical_formula_sum   'Li32 Br32'
_cell_volume   1783.72279468
_cell_formula_units_Z   32
loop_
 _symmetry_equiv_pos_site_id
 _symmetry_equiv_pos_as_xyz
  1  'x, y, z'
loop_
 _atom_site_type_symbol
 _atom_site_label
 _atom_site_symmetry_multiplicity
 _atom_site_fract_x
 _atom_site_fract_y
 _atom_site_fract_z
 _atom_site_occupancy
  Li  Li0  1  0.04367004  0.12490223  0.20559392  1
  Li  Li1  1  -0.04367092  0.87509784  0.20559399  1
  Li  Li2  1  0.20623224  0.37487480  0.45555500  1
  Li  Li3  1  -0.04367090  0.37509782  0.70559415  1
  Li  Li4  1  0.20623191  0.87487485  -0.04444437  1
  Li  Li5  1  -0.04367015  0.62490193  0.29440547  1
  Li  Li6  1  0.04367080  0.62490183  0.70559486  1
  Li  Li7  1  0.04367091  0.37509784  0.29440638  1
  Li  Li8  1  0.29376902  0.62512526  -0.04444441  1
  Li  Li9  1  0.20623126  0.62512506  0.54444536  1
  Li  Li10  1  0.70623110  0.12512500  0.54444495  1
  Li  Li11  1  0.79376828  0.37487462  0.54444432  1
  Li  Li12  1  0.29376842  0.87487464  0.54444357  1
  Li  Li13  1  0.04367145  0.87509808  0.79440594  1
  Li  Li14  1  -0.04366993  0.12490225  0.79440593  1
  Li  Li15  1  0.29376864  0.12512515  0.45555594  1
  Li  Li16  1  0.20623175  0.12512539  0.04444567  1
  Li  Li17  1  0.29376879  0.37487481  0.04444350  1
  Li  Li18  1  0.54367162  0.37509820  0.79440505  1
  Li  Li19  1  0.45632882  0.62490203  0.79440478  1
  Li  Li20  1  0.54367096  0.62490204  0.20559490  1
  Li  Li21  1  0.45632825  0.37509833  0.20559508  1
  Li  Li22  1  0.70623178  0.87487508  0.45555539  1
  Li  Li23  1  0.79376826  0.62512515  0.45555481  1
  Li  Li24  1  0.70623114  0.62512507  0.04444474  1
  Li  Li25  1  0.79376815  0.87487460  0.04444444  1
  Li  Li26  1  0.54367129  0.87509827  0.29440538  1
  Li  Li27  1  0.45632865  0.12490184  0.29440484  1
  Li  Li28  1  0.54367090  0.12490182  0.70559495  1
  Li  Li29  1  0.45632829  0.87509811  0.70559465  1
  Li  Li30  1  0.70623117  0.37487477  -0.04444384  1
  Li  Li31  1  0.79376827  0.12512507  -0.04444547  1
  Br  Br32  1  0.64406967  0.05794536  0.35519346  1
  Br  Br33  1  0.35593014  -0.05794499  0.35519290  1
  Br  Br34  1  0.60591959  0.30796430  0.60520980  1
  Br  Br35  1  0.35593052  0.44205502  0.85519278  1
  Br  Br36  1  0.60591950  0.80796434  0.10520994  1
  Br  Br37  1  0.35593001  0.55794508  0.14480654  1
  Br  Br38  1  0.64406984  0.55794518  0.85519354  1
  Br  Br39  1  0.64406932  0.44205495  0.14480702  1
  Br  Br40  1  0.89407986  0.69203534  0.10520971  1
  Br  Br41  1  0.60591964  0.69203592  0.39479042  1
  Br  Br42  1  0.10592003  0.19203535  0.39479012  1
  Br  Br43  1  0.39408057  0.30796418  0.39479047  1
  Br  Br44  1  0.89408033  0.80796438  0.39478984  1
  Br  Br45  1  0.64406933  -0.05794527  0.64480673  1
  Br  Br46  1  0.35592992  0.05794496  0.64480668  1
  Br  Br47  1  0.89407992  0.19203529  0.60521000  1
  Br  Br48  1  0.60591955  0.19203562  0.89479032  1
  Br  Br49  1  0.89408001  0.30796464  0.89479012  1
  Br  Br50  1  0.14406978  0.44205459  0.64480658  1
  Br  Br51  1  0.85593017  0.55794494  0.64480627  1
  Br  Br52  1  0.14407032  0.55794518  0.35519362  1
  Br  Br53  1  0.85593025  0.44205491  0.35519301  1
  Br  Br54  1  0.10591980  0.80796448  0.60521029  1
  Br  Br55  1  0.39408003  0.69203560  0.60520937  1
  Br  Br56  1  0.10592019  0.69203540  0.89479053  1
  Br  Br57  1  0.39408047  0.80796447  0.89479019  1
  Br  Br58  1  0.14406959  -0.05794493  0.14480679  1
  Br  Br59  1  0.85592971  0.05794492  0.14480625  1
  Br  Br60  1  0.14407048  0.05794535  0.85519398  1
  Br  Br61  1  0.85593068  -0.05794508  0.85519312  1
  Br  Br62  1  0.10592008  0.30796485  0.10521028  1
  Br  Br63  1  0.39408043  0.19203589  0.10520947  1
