# generated using pymatgen
data_LiI
_symmetry_space_group_name_H-M   'P 1'
_cell_length_a   6.98072916
_cell_length_b   7.33249941
_cell_length_c   4.24273189
_cell_angle_alpha   90.00000959
_cell_angle_beta   89.99996034
_cell_angle_gamma   89.99997518
_symmetry_Int_Tables_number   1
_chemical_formula_structural   LiI
_chemical_formula_sum   'Li4 I4'
_cell_volume   217.16929086
_cell_formula_units_Z   4
loop_
 _symmetry_equiv_pos_site_id
 _symmetry_equiv_pos_as_xyz
  1  'x, y, z'
loop_
 _atom_site_type_symbol
 _atom_site_label
 _atom_site_symmetry_multiplicity
 _atom_site_fract_x
 _atom_site_fract_y
 _atom_site_fract_z
 _atom_site_occupancy
  Li  Li0  1  0.75022738  0.24795966  0.00049558  1
  Li  Li1  1  0.24977263  0.74795930  0.49950364  1
  Li  Li2  1  0.74977264  0.75204042  0.50049066  1
  Li  Li3  1  0.25022740  0.25204057  0.99951040  1
  I  I4  1  0.00011891  0.58336311  -0.00009372  1
  I  I5  1  -0.00011892  0.08336335  0.50009353  1
  I  I6  1  0.49988105  0.41663678  0.49990773  1
  I  I7  1  0.50011892  0.91663681  0.00009218  1
