# generated using pymatgen
data_LiBr
_symmetry_space_group_name_H-M   'P 1'
_cell_length_a   7.49695545
_cell_length_b   7.49695511
_cell_length_c   3.97565641
_cell_angle_alpha   90.00001301
_cell_angle_beta   89.99995085
_cell_angle_gamma   90.00002104
_symmetry_Int_Tables_number   1
_chemical_formula_structural   LiBr
_chemical_formula_sum   'Li4 Br4'
_cell_volume   223.44913858
_cell_formula_units_Z   4
loop_
 _symmetry_equiv_pos_site_id
 _symmetry_equiv_pos_as_xyz
  1  'x, y, z'
loop_
 _atom_site_type_symbol
 _atom_site_label
 _atom_site_symmetry_multiplicity
 _atom_site_fract_x
 _atom_site_fract_y
 _atom_site_fract_z
 _atom_site_occupancy
  Li  Li0  1  0.07957503  0.66217936  0.40325456  1
  Li  Li1  1  0.66217922  0.92042483  0.15325388  1
  Li  Li2  1  0.92042495  0.33782061  0.90325482  1
  Li  Li3  1  0.33782067  0.07957531  0.65325477  1
  Br  Br4  1  0.13894422  0.32621737  0.41084702  1
  Br  Br5  1  0.32621722  0.86105603  0.16084784  1
  Br  Br6  1  0.86105587  0.67378251  0.91084799  1
  Br  Br7  1  0.67378282  0.13894398  0.66084661  1
