# generated using pymatgen
data_LiBr
_symmetry_space_group_name_H-M   'P 1'
_cell_length_a   5.58845202
_cell_length_b   5.58844327
_cell_length_c   13.04961357
_cell_angle_alpha   89.99986365
_cell_angle_beta   89.99998347
_cell_angle_gamma   89.99966984
_symmetry_Int_Tables_number   1
_chemical_formula_structural   LiBr
_chemical_formula_sum   'Li8 Br8'
_cell_volume   407.54918060
_cell_formula_units_Z   8
loop_
 _symmetry_equiv_pos_site_id
 _symmetry_equiv_pos_as_xyz
  1  'x, y, z'
loop_
 _atom_site_type_symbol
 _atom_site_label
 _atom_site_symmetry_multiplicity
 _atom_site_fract_x
 _atom_site_fract_y
 _atom_site_fract_z
 _atom_site_occupancy
  Li  Li0  1  0.49992166  0.50061096  0.87497832  1
  Li  Li1  1  0.50060675  0.49992407  0.12502099  1
  Li  Li2  1  -0.00007563  -0.00060761  0.37502120  1
  Li  Li3  1  0.49939734  0.50007695  0.62502227  1
  Li  Li4  1  0.00007565  0.00060797  0.87502065  1
  Li  Li5  1  0.50007570  0.49938814  0.37497883  1
  Li  Li6  1  0.00060210  0.00007477  0.12497830  1
  Li  Li7  1  -0.00060081  -0.00007522  0.62497839  1
  Br  Br8  1  0.24710128  0.74746999  0.49992222  1
  Br  Br9  1  0.74747406  0.24709695  0.50007829  1
  Br  Br10  1  0.74710085  0.75252991  0.75007748  1
  Br  Br11  1  0.25252524  0.75290174  0.00007830  1
  Br  Br12  1  0.25289840  0.24747098  0.25007673  1
  Br  Br13  1  0.75289782  0.25252919  -0.00007832  1
  Br  Br14  1  0.24747387  0.25290284  0.74992293  1
  Br  Br15  1  0.75252573  0.74709837  0.24992342  1
