# generated using pymatgen
data_LiBr
_symmetry_space_group_name_H-M   'P 1'
_cell_length_a   10.64033835
_cell_length_b   15.36434468
_cell_length_c   5.33015831
_cell_angle_alpha   89.99932841
_cell_angle_beta   90.00000373
_cell_angle_gamma   89.99983505
_symmetry_Int_Tables_number   1
_chemical_formula_structural   LiBr
_chemical_formula_sum   'Li16 Br16'
_cell_volume   871.38401242
_cell_formula_units_Z   16
loop_
 _symmetry_equiv_pos_site_id
 _symmetry_equiv_pos_as_xyz
  1  'x, y, z'
loop_
 _atom_site_type_symbol
 _atom_site_label
 _atom_site_symmetry_multiplicity
 _atom_site_fract_x
 _atom_site_fract_y
 _atom_site_fract_z
 _atom_site_occupancy
  Li  Li0  1  0.12524533  0.32265956  0.74834587  1
  Li  Li1  1  0.87475386  0.17733989  0.74835050  1
  Li  Li2  1  0.87475332  0.32265990  0.24834576  1
  Li  Li3  1  0.37475484  0.67734021  0.24835715  1
  Li  Li4  1  0.37475413  0.82266012  0.74835203  1
  Li  Li5  1  0.37475319  0.32265975  0.25164549  1
  Li  Li6  1  0.62524629  0.82265990  0.24835266  1
  Li  Li7  1  0.62524537  0.17734001  0.25164880  1
  Li  Li8  1  0.62524691  0.67733971  0.74835728  1
  Li  Li9  1  0.37475311  0.17734000  0.75164947  1
  Li  Li10  1  0.62524498  0.32265954  0.75164485  1
  Li  Li11  1  0.12524718  0.67734027  0.75165388  1
  Li  Li12  1  0.87475421  0.82266029  0.75164922  1
  Li  Li13  1  0.12524611  0.17734021  0.24835020  1
  Li  Li14  1  0.87475487  0.67734036  0.25165285  1
  Li  Li15  1  0.12524629  0.82266015  0.25165002  1
  Br  Br16  1  0.12490129  0.34742244  0.24986857  1
  Br  Br17  1  0.87509772  0.15257784  0.24987589  1
  Br  Br18  1  0.87509645  0.34742162  0.74986910  1
  Br  Br19  1  0.37509850  0.65257811  0.74988153  1
  Br  Br20  1  0.37509786  0.84742247  0.24987450  1
  Br  Br21  1  0.37509666  0.34742218  0.75011799  1
  Br  Br22  1  0.62490249  0.84742191  0.74987533  1
  Br  Br23  1  0.62490190  0.15257761  0.75012461  1
  Br  Br24  1  0.62490346  0.65257740  0.24988207  1
  Br  Br25  1  0.37509710  0.15257792  0.25012491  1
  Br  Br26  1  0.62490161  0.34742173  0.25011775  1
  Br  Br27  1  0.12490328  0.65257801  0.25012971  1
  Br  Br28  1  0.87509774  0.84742223  0.25012349  1
  Br  Br29  1  0.12490251  0.15257765  0.74987543  1
  Br  Br30  1  0.87509866  0.65257878  0.75012977  1
  Br  Br31  1  0.12490280  0.84742222  0.75012329  1
