# generated using pymatgen
data_LiI
_symmetry_space_group_name_H-M   'P 1'
_cell_length_a   12.34723620
_cell_length_b   12.34722725
_cell_length_c   7.71416366
_cell_angle_alpha   90.00044053
_cell_angle_beta   89.99960695
_cell_angle_gamma   120.00135602
_symmetry_Int_Tables_number   1
_chemical_formula_structural   LiI
_chemical_formula_sum   'Li12 I12'
_cell_volume   1018.48055930
_cell_formula_units_Z   12
loop_
 _symmetry_equiv_pos_site_id
 _symmetry_equiv_pos_as_xyz
  1  'x, y, z'
loop_
 _atom_site_type_symbol
 _atom_site_label
 _atom_site_symmetry_multiplicity
 _atom_site_fract_x
 _atom_site_fract_y
 _atom_site_fract_z
 _atom_site_occupancy
  Li  Li0  1  0.87645119  0.52611963  0.40868937  1
  Li  Li1  1  0.47390821  0.35032855  0.40868560  1
  Li  Li2  1  0.35032917  0.87643760  0.59131684  1
  Li  Li3  1  0.12354912  0.47388018  0.59131115  1
  Li  Li4  1  0.64967215  0.52609309  0.90868603  1
  Li  Li5  1  0.47387975  0.12354931  0.90868877  1
  Li  Li6  1  0.87643745  0.35032871  0.90868296  1
  Li  Li7  1  0.52609136  0.64967070  0.59131398  1
  Li  Li8  1  0.12356241  0.64967079  0.09131742  1
  Li  Li9  1  0.35032913  0.47390851  0.09131384  1
  Li  Li10  1  0.52611886  0.87645089  0.09131112  1
  Li  Li11  1  0.64967129  0.12356211  0.40868361  1
  I  I12  1  0.31353728  0.86637213  0.95005113  1
  I  I13  1  0.13361158  0.44714833  0.95005135  1
  I  I14  1  0.44715227  0.31353478  0.04994536  1
  I  I15  1  0.68646154  0.13362785  0.04994909  1
  I  I16  1  0.55285187  0.86638825  0.45005093  1
  I  I17  1  0.13362763  0.68646197  0.45005101  1
  I  I18  1  0.31353385  0.44715213  0.45005499  1
  I  I19  1  0.86638878  0.55285174  0.04994878  1
  I  I20  1  0.68646595  0.55284733  0.54994493  1
  I  I21  1  0.44714808  0.13361123  0.54994862  1
  I  I22  1  0.86637275  0.31353780  0.54994907  1
  I  I23  1  0.55284832  0.68646642  0.95005405  1
