# generated using pymatgen
data_LiI
_symmetry_space_group_name_H-M   'P 1'
_cell_length_a   5.83533884
_cell_length_b   5.83527447
_cell_length_c   15.01999914
_cell_angle_alpha   89.99977875
_cell_angle_beta   90.00062362
_cell_angle_gamma   89.99979839
_symmetry_Int_Tables_number   1
_chemical_formula_structural   LiI
_chemical_formula_sum   'Li8 I8'
_cell_volume   511.44304378
_cell_formula_units_Z   8
loop_
 _symmetry_equiv_pos_site_id
 _symmetry_equiv_pos_as_xyz
  1  'x, y, z'
loop_
 _atom_site_type_symbol
 _atom_site_label
 _atom_site_symmetry_multiplicity
 _atom_site_fract_x
 _atom_site_fract_y
 _atom_site_fract_z
 _atom_site_occupancy
  Li  Li0  1  0.74909066  0.74811874  0.32713636  1
  Li  Li1  1  0.74811358  0.74908891  0.67286162  1
  Li  Li2  1  0.24908622  0.75187722  0.17286796  1
  Li  Li3  1  0.25188419  0.25091536  0.67286436  1
  Li  Li4  1  0.75091187  0.24812198  0.17286818  1
  Li  Li5  1  0.25090819  0.25187855  0.32713876  1
  Li  Li6  1  0.24811699  0.75091679  0.82713204  1
  Li  Li7  1  0.75188728  0.24908563  0.82713122  1
  I  I8  1  0.75019067  0.24991115  0.64096539  1
  I  I9  1  0.24992118  0.75018843  0.35903477  1
  I  I10  1  0.25019937  0.25008791  0.85902775  1
  I  I11  1  0.75008917  0.24980781  0.35903433  1
  I  I12  1  0.74980881  0.74990774  0.85902831  1
  I  I13  1  0.24979951  0.75008991  0.64096557  1
  I  I14  1  0.74991113  0.74981235  0.14097181  1
  I  I15  1  0.25008119  0.25019153  0.14097157  1
