# generated using pymatgen
data_LiBr
_symmetry_space_group_name_H-M   'P 1'
_cell_length_a   7.09608062
_cell_length_b   6.63485332
_cell_length_c   4.54304364
_cell_angle_alpha   89.99957895
_cell_angle_beta   89.99997279
_cell_angle_gamma   90.00017546
_symmetry_Int_Tables_number   1
_chemical_formula_structural   LiBr
_chemical_formula_sum   'Li4 Br4'
_cell_volume   213.89310041
_cell_formula_units_Z   4
loop_
 _symmetry_equiv_pos_site_id
 _symmetry_equiv_pos_as_xyz
  1  'x, y, z'
loop_
 _atom_site_type_symbol
 _atom_site_label
 _atom_site_symmetry_multiplicity
 _atom_site_fract_x
 _atom_site_fract_y
 _atom_site_fract_z
 _atom_site_occupancy
  Li  Li0  1  0.10714881  0.89910224  0.49926778  1
  Li  Li1  1  0.89285128  0.39910262  0.00073884  1
  Li  Li2  1  0.39285078  0.10089743  -0.00073745  1
  Li  Li3  1  0.60714814  0.60089779  0.50073204  1
  Br  Br4  1  0.03195711  0.05323458  -0.00043165  1
  Br  Br5  1  -0.03195808  0.55323225  0.50043004  1
  Br  Br6  1  0.46804335  0.94676589  0.49956951  1
  Br  Br7  1  0.53195861  0.44676720  0.00043088  1
