# generated using pymatgen
data_KBr
_symmetry_space_group_name_H-M   'P 1'
_cell_length_a   8.01841873
_cell_length_b   4.65349993
_cell_length_c   8.12995434
_cell_angle_alpha   89.99999943
_cell_angle_beta   89.99994357
_cell_angle_gamma   89.99999398
_symmetry_Int_Tables_number   1
_chemical_formula_structural   KBr
_chemical_formula_sum   'K4 Br4'
_cell_volume   303.35876646
_cell_formula_units_Z   4
loop_
 _symmetry_equiv_pos_site_id
 _symmetry_equiv_pos_as_xyz
  1  'x, y, z'
loop_
 _atom_site_type_symbol
 _atom_site_label
 _atom_site_symmetry_multiplicity
 _atom_site_fract_x
 _atom_site_fract_y
 _atom_site_fract_z
 _atom_site_occupancy
  K  K0  1  0.75104660  0.75235431  0.48749585  1
  K  K1  1  0.25104664  0.24764569  0.48749583  1
  K  K2  1  0.24895336  0.24764566  0.98749564  1
  K  K3  1  0.74895339  0.75235434  0.98749563  1
  Br  Br4  1  0.08423809  0.74766610  0.73758196  1
  Br  Br5  1  0.58423809  0.25233386  0.73758192  1
  Br  Br6  1  0.91576191  0.25233380  0.23758130  1
  Br  Br7  1  0.41576193  0.74766623  0.23758134  1
