# generated using pymatgen
data_LiBr
_symmetry_space_group_name_H-M   'P 1'
_cell_length_a   3.89492941
_cell_length_b   3.89489520
_cell_length_c   11.01153771
_cell_angle_alpha   90.00009396
_cell_angle_beta   89.99993904
_cell_angle_gamma   89.99999534
_symmetry_Int_Tables_number   1
_chemical_formula_structural   LiBr
_chemical_formula_sum   'Li4 Br4'
_cell_volume   167.04879124
_cell_formula_units_Z   4
loop_
 _symmetry_equiv_pos_site_id
 _symmetry_equiv_pos_as_xyz
  1  'x, y, z'
loop_
 _atom_site_type_symbol
 _atom_site_label
 _atom_site_symmetry_multiplicity
 _atom_site_fract_x
 _atom_site_fract_y
 _atom_site_fract_z
 _atom_site_occupancy
  Li  Li0  1  -0.00037863  0.49989973  0.39622080  1
  Li  Li1  1  0.49989885  0.00037128  0.14622081  1
  Li  Li2  1  0.00037801  0.50010194  0.89621718  1
  Li  Li3  1  0.50010353  -0.00037021  0.64622110  1
  Br  Br4  1  0.49980434  0.00009382  0.89637562  1
  Br  Br5  1  0.00009046  0.50018700  0.64637909  1
  Br  Br6  1  0.50019443  -0.00009507  0.39637578  1
  Br  Br7  1  -0.00009099  0.49981151  0.14637833  1
