# generated using pymatgen
data_LiI
_symmetry_space_group_name_H-M   'P 1'
_cell_length_a   4.53815140
_cell_length_b   7.22064283
_cell_length_c   7.08728068
_cell_angle_alpha   90.00018140
_cell_angle_beta   91.32893770
_cell_angle_gamma   90.00050642
_symmetry_Int_Tables_number   1
_chemical_formula_structural   LiI
_chemical_formula_sum   'Li4 I4'
_cell_volume   232.17617168
_cell_formula_units_Z   4
loop_
 _symmetry_equiv_pos_site_id
 _symmetry_equiv_pos_as_xyz
  1  'x, y, z'
loop_
 _atom_site_type_symbol
 _atom_site_label
 _atom_site_symmetry_multiplicity
 _atom_site_fract_x
 _atom_site_fract_y
 _atom_site_fract_z
 _atom_site_occupancy
  Li  Li0  1  0.36789748  -0.05012613  0.87485560  1
  Li  Li1  1  0.86786978  0.44982296  0.87480351  1
  Li  Li2  1  0.36787952  0.05012836  0.37485038  1
  Li  Li3  1  0.86785399  0.55017509  0.37480742  1
  I  I4  1  0.35962010  0.69961690  0.18684831  1
  I  I5  1  0.85963606  0.19961476  0.18685824  1
  I  I6  1  0.35963468  0.30038309  0.68684708  1
  I  I7  1  0.85964947  0.80038497  0.68686503  1
