# generated using pymatgen
data_LiBr
_symmetry_space_group_name_H-M   'P 1'
_cell_length_a   11.53126464
_cell_length_b   11.53145950
_cell_length_c   7.92249396
_cell_angle_alpha   89.99995194
_cell_angle_beta   89.99493937
_cell_angle_gamma   120.02212531
_symmetry_Int_Tables_number   1
_chemical_formula_structural   LiBr
_chemical_formula_sum   'Li18 Br18'
_cell_volume   912.13032420
_cell_formula_units_Z   18
loop_
 _symmetry_equiv_pos_site_id
 _symmetry_equiv_pos_as_xyz
  1  'x, y, z'
loop_
 _atom_site_type_symbol
 _atom_site_label
 _atom_site_symmetry_multiplicity
 _atom_site_fract_x
 _atom_site_fract_y
 _atom_site_fract_z
 _atom_site_occupancy
  Li  Li0  1  0.25989951  0.13008807  0.30416628  1
  Li  Li1  1  0.26000185  0.12985319  0.80412753  1
  Li  Li2  1  0.20323575  0.40674274  0.47097999  1
  Li  Li3  1  0.20346368  0.79673636  0.47110823  1
  Li  Li4  1  0.53651853  0.46306805  0.63786280  1
  Li  Li5  1  0.86985220  0.12981020  0.30451350  1
  Li  Li6  1  0.20345595  0.40666940  0.97086484  1
  Li  Li7  1  0.20312832  0.79642705  0.97107457  1
  Li  Li8  1  0.87011609  0.74004884  0.30411451  1
  Li  Li9  1  0.87016094  0.13013274  0.80454522  1
  Li  Li10  1  0.59324974  0.79680714  0.97086760  1
  Li  Li11  1  0.59331166  0.79658585  0.47074807  1
  Li  Li12  1  0.53676987  0.07337678  0.63755836  1
  Li  Li13  1  0.53693656  0.46351194  0.13789005  1
  Li  Li14  1  0.86985921  0.74012819  0.80415840  1
  Li  Li15  1  0.53652343  0.07347159  0.13761685  1
  Li  Li16  1  -0.07346243  0.46342678  0.63750308  1
  Li  Li17  1  -0.07331767  0.46323327  0.13744676  1
  Br  Br18  1  0.45364819  0.54597424  0.39857682  1
  Br  Br19  1  0.45363527  0.90765566  0.89831385  1
  Br  Br20  1  0.78734481  0.21306083  0.56516040  1
  Br  Br21  1  0.42563133  0.21254615  0.56474257  1
  Br  Br22  1  0.12077366  0.24104426  0.73150445  1
  Br  Br23  1  0.45412659  0.90770779  0.39819298  1
  Br  Br24  1  0.42572313  0.21311436  0.06488780  1
  Br  Br25  1  0.78751685  0.57441108  0.06468841  1
  Br  Br26  1  0.09238170  0.54640810  0.39823842  1
  Br  Br27  1  0.09231270  0.54586199  0.89803066  1
  Br  Br28  1  0.78695416  0.21262546  0.06519882  1
  Br  Br29  1  0.78694832  0.57430737  0.56498213  1
  Br  Br30  1  0.75903520  0.87973649  0.73149975  1
  Br  Br31  1  0.75891239  0.87917630  0.23139831  1
  Br  Br32  1  0.45400958  0.54630491  0.89850409  1
  Br  Br33  1  0.12077952  0.87969590  0.23174621  1
  Br  Br34  1  0.12034833  0.87930785  0.73177984  1
  Br  Br35  1  0.12021507  0.24094306  0.23167215  1
