# generated using pymatgen
data_LiI
_symmetry_space_group_name_H-M   'P 1'
_cell_length_a   7.00515951
_cell_length_b   7.23025278
_cell_length_c   4.25192657
_cell_angle_alpha   89.99969538
_cell_angle_beta   90.00021652
_cell_angle_gamma   90.00020774
_symmetry_Int_Tables_number   1
_chemical_formula_structural   LiI
_chemical_formula_sum   'Li4 I4'
_cell_volume   215.35614386
_cell_formula_units_Z   4
loop_
 _symmetry_equiv_pos_site_id
 _symmetry_equiv_pos_as_xyz
  1  'x, y, z'
loop_
 _atom_site_type_symbol
 _atom_site_label
 _atom_site_symmetry_multiplicity
 _atom_site_fract_x
 _atom_site_fract_y
 _atom_site_fract_z
 _atom_site_occupancy
  Li  Li0  1  0.50200405  0.24870228  0.13380894  1
  Li  Li1  1  0.00200401  0.25129767  0.13382298  1
  Li  Li2  1  0.49799606  0.75129772  0.63382298  1
  Li  Li3  1  -0.00200405  0.74870229  0.63380925  1
  I  I4  1  0.24951117  0.91748539  0.13420074  1
  I  I5  1  0.74951101  0.58251461  0.13420011  1
  I  I6  1  0.75048897  0.08251462  0.63420011  1
  I  I7  1  0.25048879  0.41748541  0.63420069  1
