# generated using pymatgen
data_LiBr
_symmetry_space_group_name_H-M   'P 1'
_cell_length_a   7.74967066
_cell_length_b   7.74802278
_cell_length_c   13.05053820
_cell_angle_alpha   90.00001982
_cell_angle_beta   90.00028548
_cell_angle_gamma   90.00009895
_symmetry_Int_Tables_number   1
_chemical_formula_structural   LiBr
_chemical_formula_sum   'Li16 Br16'
_cell_volume   783.61466980
_cell_formula_units_Z   16
loop_
 _symmetry_equiv_pos_site_id
 _symmetry_equiv_pos_as_xyz
  1  'x, y, z'
loop_
 _atom_site_type_symbol
 _atom_site_label
 _atom_site_symmetry_multiplicity
 _atom_site_fract_x
 _atom_site_fract_y
 _atom_site_fract_z
 _atom_site_occupancy
  Li  Li0  1  0.68677692  0.31352411  0.46482455  1
  Li  Li1  1  0.81378418  0.68671490  0.71475660  1
  Li  Li2  1  0.31322048  0.31352369  0.96482418  1
  Li  Li3  1  0.31321879  0.68647782  0.46482438  1
  Li  Li4  1  0.18622129  0.31328448  0.71475640  1
  Li  Li5  1  0.68622002  0.18671439  0.71475671  1
  Li  Li6  1  0.31378675  0.81328609  0.71475727  1
  Li  Li7  1  0.18621792  0.68671444  0.21475682  1
  Li  Li8  1  0.81378388  0.31328459  0.21475686  1
  Li  Li9  1  0.81322172  0.18647817  0.96482370  1
  Li  Li10  1  0.68621900  0.81328553  0.21475650  1
  Li  Li11  1  0.18677685  0.81352413  0.96482447  1
  Li  Li12  1  0.31378541  0.18671560  0.21475703  1
  Li  Li13  1  0.81322041  0.81352194  0.46482396  1
  Li  Li14  1  0.18677602  0.18647486  0.46482439  1
  Li  Li15  1  0.68677623  0.68647584  0.96482449  1
  Br  Br16  1  0.75045630  0.56160066  0.33983008  1
  Br  Br17  1  0.06173520  0.75048341  0.58984648  1
  Br  Br18  1  0.24954307  0.56160165  0.83983065  1
  Br  Br19  1  0.24954362  0.43839842  0.33983118  1
  Br  Br20  1  0.93826588  0.24952172  0.58984653  1
  Br  Br21  1  0.43826577  0.25047641  0.58984621  1
  Br  Br22  1  0.56173494  0.74951676  0.58984548  1
  Br  Br23  1  0.93826486  0.75048004  0.08984608  1
  Br  Br24  1  0.06173526  0.24951938  0.08984640  1
  Br  Br25  1  0.74954154  0.93839843  0.83983084  1
  Br  Br26  1  0.43826483  0.74952056  0.08984643  1
  Br  Br27  1  0.25045519  0.06160136  0.83983113  1
  Br  Br28  1  0.56173541  0.25048087  0.08984564  1
  Br  Br29  1  0.74954224  0.06160125  0.33983105  1
  Br  Br30  1  0.25045532  0.93839903  0.33983003  1
  Br  Br31  1  0.75045471  0.43839945  0.83983035  1
