# generated using pymatgen
data_LiI
_symmetry_space_group_name_H-M   'P 1'
_cell_length_a   8.50842978
_cell_length_b   8.51309771
_cell_length_c   12.03449684
_cell_angle_alpha   90.00002192
_cell_angle_beta   90.00001471
_cell_angle_gamma   90.00004041
_symmetry_Int_Tables_number   1
_chemical_formula_structural   LiI
_chemical_formula_sum   'Li16 I16'
_cell_volume   871.69584148
_cell_formula_units_Z   16
loop_
 _symmetry_equiv_pos_site_id
 _symmetry_equiv_pos_as_xyz
  1  'x, y, z'
loop_
 _atom_site_type_symbol
 _atom_site_label
 _atom_site_symmetry_multiplicity
 _atom_site_fract_x
 _atom_site_fract_y
 _atom_site_fract_z
 _atom_site_occupancy
  Li  Li0  1  0.74892631  -0.00053617  0.76384241  1
  Li  Li1  1  0.49949378  0.74897237  0.01456402  1
  Li  Li2  1  0.25107574  -0.00053268  0.26384171  1
  Li  Li3  1  0.25107472  0.00053264  0.76384176  1
  Li  Li4  1  0.50050349  0.25102851  0.01456297  1
  Li  Li5  1  0.00050727  0.24897250  0.01456363  1
  Li  Li6  1  -0.00050500  0.75102804  0.01456325  1
  Li  Li7  1  0.50050501  0.74897120  0.51456349  1
  Li  Li8  1  0.49949306  0.25102894  0.51456334  1
  Li  Li9  1  0.75107537  0.50053333  0.26384184  1
  Li  Li10  1  0.00050413  0.75102918  0.51456296  1
  Li  Li11  1  0.24892513  0.49946209  0.26384176  1
  Li  Li12  1  -0.00050597  0.24897100  0.51456402  1
  Li  Li13  1  0.75107477  0.49946604  0.76384183  1
  Li  Li14  1  0.24892628  0.50053589  0.76384168  1
  Li  Li15  1  0.74892497  0.00053489  0.26384179  1
  I  I16  1  0.49958716  0.25012318  0.76320422  1
  I  I17  1  0.75006126  0.49958971  0.01312883  1
  I  I18  1  0.50041272  0.25012331  0.26320443  1
  I  I19  1  0.50041320  0.74987701  0.76320425  1
  I  I20  1  0.24993863  0.50041067  0.01312849  1
  I  I21  1  0.74993865  -0.00041019  0.01312962  1
  I  I22  1  0.25006125  0.00041037  0.01312916  1
  I  I23  1  0.24993868  0.49958984  0.51312895  1
  I  I24  1  0.75006132  0.50041017  0.51312914  1
  I  I25  1  0.00041291  0.24987704  0.26320424  1
  I  I26  1  0.74993866  0.00041051  0.51312848  1
  I  I27  1  -0.00041259  0.75012351  0.26320407  1
  I  I28  1  0.25006164  -0.00041000  0.51312846  1
  I  I29  1  0.00041309  0.75012344  0.76320428  1
  I  I30  1  -0.00041284  0.24987689  0.76320449  1
  I  I31  1  0.49958717  0.74987677  0.26320463  1
