# generated using pymatgen
data_KI
_symmetry_space_group_name_H-M   'P 1'
_cell_length_a   9.73420455
_cell_length_b   4.53448543
_cell_length_c   8.44014486
_cell_angle_alpha   89.99976297
_cell_angle_beta   89.99994209
_cell_angle_gamma   90.00000160
_symmetry_Int_Tables_number   1
_chemical_formula_structural   KI
_chemical_formula_sum   'K4 I4'
_cell_volume   372.54469136
_cell_formula_units_Z   4
loop_
 _symmetry_equiv_pos_site_id
 _symmetry_equiv_pos_as_xyz
  1  'x, y, z'
loop_
 _atom_site_type_symbol
 _atom_site_label
 _atom_site_symmetry_multiplicity
 _atom_site_fract_x
 _atom_site_fract_y
 _atom_site_fract_z
 _atom_site_occupancy
  K  K0  1  0.37410227  0.49669420  0.40508446  1
  K  K1  1  0.87410214  0.50330603  0.40508441  1
  K  K2  1  0.62589786  0.50330592  0.90508323  1
  K  K3  1  0.12589773  0.49669424  0.90508324  1
  I  I4  1  0.62364745  0.00259863  0.23762634  1
  I  I5  1  0.12364745  -0.00259880  0.23762617  1
  I  I6  1  0.37635254  -0.00259855  0.73762570  1
  I  I7  1  0.87635255  0.00259832  0.73762586  1
