# generated using pymatgen
data_NaBr
_symmetry_space_group_name_H-M   'P 1'
_cell_length_a   4.15485548
_cell_length_b   16.59607174
_cell_length_c   5.85454317
_cell_angle_alpha   90.00480485
_cell_angle_beta   134.82814387
_cell_angle_gamma   89.99814435
_symmetry_Int_Tables_number   1
_chemical_formula_structural   NaBr
_chemical_formula_sum   'Na4 Br4'
_cell_volume   286.31096902
_cell_formula_units_Z   4
loop_
 _symmetry_equiv_pos_site_id
 _symmetry_equiv_pos_as_xyz
  1  'x, y, z'
loop_
 _atom_site_type_symbol
 _atom_site_label
 _atom_site_symmetry_multiplicity
 _atom_site_fract_x
 _atom_site_fract_y
 _atom_site_fract_z
 _atom_site_occupancy
  Na  Na0  1  0.55471755  0.33232555  0.06914501  1
  Na  Na1  1  0.44529850  0.83232211  0.43089885  1
  Na  Na2  1  0.44528238  0.66767445  -0.06914505  1
  Na  Na3  1  0.55470157  0.16767789  0.56910118  1
  Br  Br4  1  0.44520241  0.84700468  0.93087979  1
  Br  Br5  1  0.55482154  0.34700866  0.56917567  1
  Br  Br6  1  0.55479766  0.15299533  0.06912024  1
  Br  Br7  1  0.44517840  0.65299134  0.43082430  1
