# generated using pymatgen
data_LiI
_symmetry_space_group_name_H-M   'P 1'
_cell_length_a   12.82365860
_cell_length_b   12.82461666
_cell_length_c   4.30139002
_cell_angle_alpha   90.02011128
_cell_angle_beta   89.96724838
_cell_angle_gamma   120.03151419
_symmetry_Int_Tables_number   1
_chemical_formula_structural   LiI
_chemical_formula_sum   'Li6 I6'
_cell_volume   612.43178269
_cell_formula_units_Z   6
loop_
 _symmetry_equiv_pos_site_id
 _symmetry_equiv_pos_as_xyz
  1  'x, y, z'
loop_
 _atom_site_type_symbol
 _atom_site_label
 _atom_site_symmetry_multiplicity
 _atom_site_fract_x
 _atom_site_fract_y
 _atom_site_fract_z
 _atom_site_occupancy
  Li  Li0  1  0.61344991  0.43948381  0.33915625  1
  Li  Li1  1  0.17388799  0.61322770  0.67261803  1
  Li  Li2  1  0.82611724  0.38677621  0.67221027  1
  Li  Li3  1  0.43948722  0.82615669  0.00559503  1
  Li  Li4  1  0.56052747  0.17386926  0.00573820  1
  Li  Li5  1  0.38654002  0.56052516  0.33894545  1
  I  I6  1  0.47407963  0.32185113  0.84649999  1
  I  I7  1  0.15198953  0.47383459  0.17982990  1
  I  I8  1  0.84800203  0.52615511  0.17959414  1
  I  I9  1  0.32187581  0.84773398  0.51330470  1
  I  I10  1  0.67812123  0.15224798  0.51304170  1
  I  I11  1  0.52592192  0.67813838  0.84606657  1
