# generated using pymatgen
data_LiI
_symmetry_space_group_name_H-M   'P 1'
_cell_length_a   8.54364040
_cell_length_b   8.54364649
_cell_length_c   14.07745660
_cell_angle_alpha   89.99984522
_cell_angle_beta   89.99990295
_cell_angle_gamma   90.00010357
_symmetry_Int_Tables_number   1
_chemical_formula_structural   LiI
_chemical_formula_sum   'Li16 I16'
_cell_volume   1027.56766197
_cell_formula_units_Z   16
loop_
 _symmetry_equiv_pos_site_id
 _symmetry_equiv_pos_as_xyz
  1  'x, y, z'
loop_
 _atom_site_type_symbol
 _atom_site_label
 _atom_site_symmetry_multiplicity
 _atom_site_fract_x
 _atom_site_fract_y
 _atom_site_fract_z
 _atom_site_occupancy
  Li  Li0  1  0.31424730  0.68546689  0.48462089  1
  Li  Li1  1  0.18546759  0.31424613  0.73462098  1
  Li  Li2  1  0.68575396  0.68546671  0.98462138  1
  Li  Li3  1  0.68575353  0.31453079  0.48462095  1
  Li  Li4  1  0.81452973  0.68575454  0.73462076  1
  Li  Li5  1  0.31453008  0.81424517  0.73462155  1
  Li  Li6  1  0.68546767  0.18575367  0.73462139  1
  Li  Li7  1  0.81453114  0.31424757  0.23462147  1
  Li  Li8  1  0.18546696  0.68575472  0.23462114  1
  Li  Li9  1  0.18575510  0.81452964  0.98462087  1
  Li  Li10  1  0.31453101  0.18575466  0.23462103  1
  Li  Li11  1  0.81424725  0.18546748  0.98462160  1
  Li  Li12  1  0.68546734  0.81424789  0.23462117  1
  Li  Li13  1  0.18575303  0.18546592  0.48462130  1
  Li  Li14  1  0.81424656  0.81453027  0.48462152  1
  Li  Li15  1  0.31424657  0.31452997  0.98462131  1
  I  I16  1  0.93868012  0.25070126  0.60965598  1
  I  I17  1  0.75070052  0.93868062  0.85965635  1
  I  I18  1  0.06131998  0.25070064  0.10965603  1
  I  I19  1  0.06132008  0.74930090  0.60965579  1
  I  I20  1  0.24930013  0.06131943  0.85965577  1
  I  I21  1  0.74929965  0.43868047  0.85965616  1
  I  I22  1  0.25070057  0.56131865  0.85965588  1
  I  I23  1  0.24930017  0.93868095  0.35965553  1
  I  I24  1  0.75070130  0.06132030  0.35965634  1
  I  I25  1  0.56132050  0.24929980  0.10965615  1
  I  I26  1  0.74930111  0.56132082  0.35965619  1
  I  I27  1  0.43868067  0.75069995  0.10965585  1
  I  I28  1  0.25070032  0.43868095  0.35965572  1
  I  I29  1  0.56131936  0.75070202  0.60965588  1
  I  I30  1  0.43868031  0.24930082  0.60965592  1
  I  I31  1  0.93868039  0.74930037  0.10965571  1
