# generated using pymatgen
data_NaI
_symmetry_space_group_name_H-M   'P 1'
_cell_length_a   9.23909481
_cell_length_b   9.23257500
_cell_length_c   12.99834579
_cell_angle_alpha   90.00025972
_cell_angle_beta   90.00005663
_cell_angle_gamma   89.98321364
_symmetry_Int_Tables_number   1
_chemical_formula_structural   NaI
_chemical_formula_sum   'Na16 I16'
_cell_volume   1108.76711213
_cell_formula_units_Z   16
loop_
 _symmetry_equiv_pos_site_id
 _symmetry_equiv_pos_as_xyz
  1  'x, y, z'
loop_
 _atom_site_type_symbol
 _atom_site_label
 _atom_site_symmetry_multiplicity
 _atom_site_fract_x
 _atom_site_fract_y
 _atom_site_fract_z
 _atom_site_occupancy
  Na  Na0  1  0.75051673  0.50005413  0.59366744  1
  Na  Na1  1  0.24953496  0.50004451  0.59364247  1
  Na  Na2  1  0.49948469  0.74993076  0.84362946  1
  Na  Na3  1  0.74953530  0.50004412  0.09364236  1
  Na  Na4  1  -0.00051467  0.74993139  0.34362953  1
  Na  Na5  1  0.00048037  0.74992987  0.84367262  1
  Na  Na6  1  0.25051681  0.50005378  0.09366751  1
  Na  Na7  1  -0.00051481  0.24993067  0.84362931  1
  Na  Na8  1  0.00048132  0.24993020  0.34367255  1
  Na  Na9  1  0.25051696  0.00005376  0.59366739  1
  Na  Na10  1  0.74953497  0.00004456  0.59364259  1
  Na  Na11  1  0.49948570  0.24993161  0.34362946  1
  Na  Na12  1  0.50048129  0.74993046  0.34367245  1
  Na  Na13  1  0.50048035  0.24992976  0.84367263  1
  Na  Na14  1  0.75051674  0.00005372  0.09366733  1
  Na  Na15  1  0.24953503  0.00004420  0.09364264  1
  I  I16  1  0.74975140  0.49978703  0.34355088  1
  I  I17  1  0.25020702  0.50017323  0.34355460  1
  I  I18  1  0.50023940  0.74984569  0.59355389  1
  I  I19  1  0.75020647  0.50017273  0.84355463  1
  I  I20  1  0.00023928  0.74984570  0.09355387  1
  I  I21  1  -0.00021504  0.75023529  0.59354736  1
  I  I22  1  0.24975067  0.49978678  0.84355070  1
  I  I23  1  0.00023955  0.24984583  0.59355408  1
  I  I24  1  -0.00021478  0.25023499  0.09354741  1
  I  I25  1  0.24975113  -0.00021289  0.34355072  1
  I  I26  1  0.75020687  0.00017333  0.34355451  1
  I  I27  1  0.50023942  0.24984556  0.09355395  1
  I  I28  1  0.49978505  0.75023465  0.09354744  1
  I  I29  1  0.49978520  0.25023505  0.59354738  1
  I  I30  1  0.74975031  -0.00021322  0.84355080  1
  I  I31  1  0.25020632  0.00017273  0.84355459  1
