# generated using pymatgen
data_LiI
_symmetry_space_group_name_H-M   'P 1'
_cell_length_a   7.34954972
_cell_length_b   4.23712338
_cell_length_c   6.94767051
_cell_angle_alpha   89.99945524
_cell_angle_beta   90.00038499
_cell_angle_gamma   90.00011828
_symmetry_Int_Tables_number   1
_chemical_formula_structural   LiI
_chemical_formula_sum   'Li4 I4'
_cell_volume   216.35705255
_cell_formula_units_Z   4
loop_
 _symmetry_equiv_pos_site_id
 _symmetry_equiv_pos_as_xyz
  1  'x, y, z'
loop_
 _atom_site_type_symbol
 _atom_site_label
 _atom_site_symmetry_multiplicity
 _atom_site_fract_x
 _atom_site_fract_y
 _atom_site_fract_z
 _atom_site_occupancy
  Li  Li0  1  0.24759205  0.74961840  0.09802556  1
  Li  Li1  1  0.74759147  0.25037936  0.09802744  1
  Li  Li2  1  0.75240905  0.25037893  0.59802748  1
  Li  Li3  1  0.25240817  0.74961622  0.59802573  1
  I  I4  1  0.58371056  0.74916166  0.34763610  1
  I  I5  1  0.08371054  0.25084181  0.34763578  1
  I  I6  1  0.41628910  0.25084169  0.84763590  1
  I  I7  1  0.91628906  0.74916193  0.84763600  1
