# generated using pymatgen
data_LiBr
_symmetry_space_group_name_H-M   'P 1'
_cell_length_a   7.24129275
_cell_length_b   4.19764234
_cell_length_c   6.74696815
_cell_angle_alpha   90.00018861
_cell_angle_beta   90.00048039
_cell_angle_gamma   89.99954496
_symmetry_Int_Tables_number   1
_chemical_formula_structural   LiBr
_chemical_formula_sum   'Li4 Br4'
_cell_volume   205.08325291
_cell_formula_units_Z   4
loop_
 _symmetry_equiv_pos_site_id
 _symmetry_equiv_pos_as_xyz
  1  'x, y, z'
loop_
 _atom_site_type_symbol
 _atom_site_label
 _atom_site_symmetry_multiplicity
 _atom_site_fract_x
 _atom_site_fract_y
 _atom_site_fract_z
 _atom_site_occupancy
  Li  Li0  1  0.91575275  0.24974591  0.26755470  1
  Li  Li1  1  0.41574476  0.75024541  0.26753131  1
  Li  Li2  1  0.08424663  0.75025498  0.76754785  1
  Li  Li3  1  0.58425226  0.24975338  0.76753083  1
  Br  Br4  1  0.91792796  0.25049452  0.64669462  1
  Br  Br5  1  0.41794508  0.74951163  0.64671391  1
  Br  Br6  1  0.08207596  0.74950478  0.14669217  1
  Br  Br7  1  0.58205460  0.25048939  0.14671169  1
