# generated using pymatgen
data_KI
_symmetry_space_group_name_H-M   'P 1'
_cell_length_a   10.53063969
_cell_length_b   6.10837148
_cell_length_c   7.11590048
_cell_angle_alpha   90.00026728
_cell_angle_beta   89.99963560
_cell_angle_gamma   90.00145626
_symmetry_Int_Tables_number   1
_chemical_formula_structural   KI
_chemical_formula_sum   'K4 I4'
_cell_volume   457.73071868
_cell_formula_units_Z   4
loop_
 _symmetry_equiv_pos_site_id
 _symmetry_equiv_pos_as_xyz
  1  'x, y, z'
loop_
 _atom_site_type_symbol
 _atom_site_label
 _atom_site_symmetry_multiplicity
 _atom_site_fract_x
 _atom_site_fract_y
 _atom_site_fract_z
 _atom_site_occupancy
  K  K0  1  -0.08203013  0.24922543  0.29754998  1
  K  K1  1  0.41797018  0.75076824  0.29754981  1
  K  K2  1  0.08203150  0.75076912  0.79755164  1
  K  K3  1  0.58203119  0.24923736  0.79755121  1
  I  I4  1  0.91587324  0.25000521  0.79860060  1
  I  I5  1  0.41587227  0.74998399  0.79860056  1
  I  I6  1  0.08412569  0.74998980  0.29860483  1
  I  I7  1  0.58412607  0.25002085  0.29860493  1
