# generated using pymatgen
data_LiI
_symmetry_space_group_name_H-M   'P 1'
_cell_length_a   14.73042182
_cell_length_b   6.65342713
_cell_length_c   6.72988958
_cell_angle_alpha   90.00022953
_cell_angle_beta   90.00000464
_cell_angle_gamma   90.00000614
_symmetry_Int_Tables_number   1
_chemical_formula_structural   LiI
_chemical_formula_sum   'Li8 I8'
_cell_volume   659.58159316
_cell_formula_units_Z   8
loop_
 _symmetry_equiv_pos_site_id
 _symmetry_equiv_pos_as_xyz
  1  'x, y, z'
loop_
 _atom_site_type_symbol
 _atom_site_label
 _atom_site_symmetry_multiplicity
 _atom_site_fract_x
 _atom_site_fract_y
 _atom_site_fract_z
 _atom_site_occupancy
  Li  Li0  1  0.74980776  0.70520216  0.54471807  1
  Li  Li1  1  0.24980770  0.29479801  0.04471813  1
  Li  Li2  1  0.75019216  0.20520213  0.54471735  1
  Li  Li3  1  0.25019234  0.29479786  0.54471748  1
  Li  Li4  1  0.24980766  0.79479770  0.54471816  1
  Li  Li5  1  0.75019203  0.70520187  0.04471732  1
  Li  Li6  1  0.25019240  0.79479823  0.04471751  1
  Li  Li7  1  0.74980792  0.20520198  0.04471800  1
  I  I8  1  0.15125919  0.54488484  0.79434345  1
  I  I9  1  0.65125911  0.45511503  0.29434330  1
  I  I10  1  0.34874092  0.04488514  0.79434324  1
  I  I11  1  0.84874086  0.45511504  0.79434329  1
  I  I12  1  0.65125913  0.95511528  0.79434331  1
  I  I13  1  0.34874087  0.54488512  0.29434333  1
  I  I14  1  0.84874078  0.95511479  0.29434332  1
  I  I15  1  0.15125916  0.04488482  0.29434338  1
