# generated using pymatgen
data_LiBr
_symmetry_space_group_name_H-M   'P 1'
_cell_length_a   3.89517296
_cell_length_b   3.89048244
_cell_length_c   11.00268226
_cell_angle_alpha   90.00132331
_cell_angle_beta   90.01293341
_cell_angle_gamma   90.05739794
_symmetry_Int_Tables_number   1
_chemical_formula_structural   LiBr
_chemical_formula_sum   'Li4 Br4'
_cell_volume   166.73568128
_cell_formula_units_Z   4
loop_
 _symmetry_equiv_pos_site_id
 _symmetry_equiv_pos_as_xyz
  1  'x, y, z'
loop_
 _atom_site_type_symbol
 _atom_site_label
 _atom_site_symmetry_multiplicity
 _atom_site_fract_x
 _atom_site_fract_y
 _atom_site_fract_z
 _atom_site_occupancy
  Li  Li0  1  0.50270557  0.00104199  0.17058922  1
  Li  Li1  1  0.00078032  0.49729801  0.92053170  1
  Li  Li2  1  0.49730526  -0.00102374  0.67059175  1
  Li  Li3  1  -0.00076929  0.50273051  0.42053567  1
  Br  Br4  1  0.50018927  -0.00075510  0.92095332  1
  Br  Br5  1  -0.00059967  0.49959354  0.67106017  1
  Br  Br6  1  0.49982053  0.00071730  0.42095578  1
  Br  Br7  1  0.00056800  0.50039748  0.17105968  1
