# generated using pymatgen
data_LiI
_symmetry_space_group_name_H-M   'P 1'
_cell_length_a   8.57113812
_cell_length_b   12.49875240
_cell_length_c   4.25210254
_cell_angle_alpha   108.61867059
_cell_angle_beta   90.03860306
_cell_angle_gamma   89.99703435
_symmetry_Int_Tables_number   1
_chemical_formula_structural   LiI
_chemical_formula_sum   'Li8 I8'
_cell_volume   431.68142249
_cell_formula_units_Z   8
loop_
 _symmetry_equiv_pos_site_id
 _symmetry_equiv_pos_as_xyz
  1  'x, y, z'
loop_
 _atom_site_type_symbol
 _atom_site_label
 _atom_site_symmetry_multiplicity
 _atom_site_fract_x
 _atom_site_fract_y
 _atom_site_fract_z
 _atom_site_occupancy
  Li  Li0  1  0.12545959  0.87528217  0.62450577  1
  Li  Li1  1  0.87519559  0.62501197  -0.12602406  1
  Li  Li2  1  0.37545240  0.62485159  -0.12740472  1
  Li  Li3  1  0.37451535  0.12483537  0.37499547  1
  Li  Li4  1  0.12479552  0.37498961  0.12604561  1
  Li  Li5  1  0.62454848  0.37514784  0.12739235  1
  Li  Li6  1  0.62548768  0.87516504  0.62499990  1
  Li  Li7  1  0.87453826  0.12471720  0.37550259  1
  I  I8  1  0.12560824  0.62519001  0.37484206  1
  I  I9  1  0.37566432  0.87495798  0.12397358  1
  I  I10  1  -0.12418964  0.87498273  0.12501348  1
  I  I11  1  0.37454004  0.37500393  0.62510666  1
  I  I12  1  0.62434432  0.12504479  -0.12398706  1
  I  I13  1  0.12418928  0.12501502  -0.12500773  1
  I  I14  1  0.62545682  0.62499628  0.37489710  1
  I  I15  1  0.87439374  0.37480847  0.62514899  1
