# generated using pymatgen
data_NaBr
_symmetry_space_group_name_H-M   'P 1'
_cell_length_a   6.02217434
_cell_length_b   4.26952954
_cell_length_c   8.51963771
_cell_angle_alpha   90.00000079
_cell_angle_beta   89.99999676
_cell_angle_gamma   90.00000004
_symmetry_Int_Tables_number   1
_chemical_formula_structural   NaBr
_chemical_formula_sum   'Na4 Br4'
_cell_volume   219.05565751
_cell_formula_units_Z   4
loop_
 _symmetry_equiv_pos_site_id
 _symmetry_equiv_pos_as_xyz
  1  'x, y, z'
loop_
 _atom_site_type_symbol
 _atom_site_label
 _atom_site_symmetry_multiplicity
 _atom_site_fract_x
 _atom_site_fract_y
 _atom_site_fract_z
 _atom_site_occupancy
  Na  Na0  1  0.24876169  -0.00056151  0.87828867  1
  Na  Na1  1  0.75123831  0.49943842  0.62171110  1
  Na  Na2  1  0.25123808  0.00056119  0.37829046  1
  Na  Na3  1  0.74876192  0.50056111  0.12170977  1
  Br  Br4  1  0.24957044  0.49891566  0.12695169  1
  Br  Br5  1  0.75042956  -0.00108439  0.37304831  1
  Br  Br6  1  0.25042962  0.50108479  0.62695103  1
  Br  Br7  1  0.74957038  0.00108473  0.87304897  1
