# generated using pymatgen
data_LiBr
_symmetry_space_group_name_H-M   'P 1'
_cell_length_a   10.65300701
_cell_length_b   10.65304105
_cell_length_c   7.43618208
_cell_angle_alpha   89.99967812
_cell_angle_beta   89.99971095
_cell_angle_gamma   89.99998203
_symmetry_Int_Tables_number   1
_chemical_formula_structural   LiBr
_chemical_formula_sum   'Li16 Br16'
_cell_volume   843.90940905
_cell_formula_units_Z   16
loop_
 _symmetry_equiv_pos_site_id
 _symmetry_equiv_pos_as_xyz
  1  'x, y, z'
loop_
 _atom_site_type_symbol
 _atom_site_label
 _atom_site_symmetry_multiplicity
 _atom_site_fract_x
 _atom_site_fract_y
 _atom_site_fract_z
 _atom_site_occupancy
  Li  Li0  1  0.44074898  0.87485468  0.71769550  1
  Li  Li1  1  0.37485685  0.44075180  -0.03230753  1
  Li  Li2  1  0.55924926  0.87485456  0.21770233  1
  Li  Li3  1  0.55925205  0.12514293  0.71768891  1
  Li  Li4  1  0.62514486  0.55925173  -0.03230558  1
  Li  Li5  1  0.12514378  0.94074700  -0.03231038  1
  Li  Li6  1  0.87485481  0.05925309  -0.03230915  1
  Li  Li7  1  0.62514464  0.44074719  0.46768754  1
  Li  Li8  1  0.37485510  0.55925211  0.46769608  1
  Li  Li9  1  0.05924439  0.62514219  0.21769165  1
  Li  Li10  1  0.12514417  0.05925025  0.46768869  1
  Li  Li11  1  0.94074321  0.37485468  0.21768538  1
  Li  Li12  1  0.87485573  0.94074907  0.46769636  1
  Li  Li13  1  0.05925300  0.37485615  0.71768946  1
  Li  Li14  1  0.94075353  0.62514364  0.71769252  1
  Li  Li15  1  0.44074929  0.12514252  0.21768457  1
  Br  Br16  1  0.03417721  0.16341550  0.17467656  1
  Br  Br17  1  0.66341552  0.03417951  0.42467949  1
  Br  Br18  1  0.96582161  0.16341424  0.67467654  1
  Br  Br19  1  0.96582315  0.83658900  0.17468142  1
  Br  Br20  1  0.33658871  0.96581995  0.42467563  1
  Br  Br21  1  0.83658767  0.53417971  0.42467378  1
  Br  Br22  1  0.16341427  0.46582233  0.42467692  1
  Br  Br23  1  0.33658429  0.03417838  0.92467436  1
  Br  Br24  1  0.66341150  0.96582136  0.92468257  1
  Br  Br25  1  0.46582339  0.33658689  0.67467791  1
  Br  Br26  1  0.83658570  0.46582094  0.92467304  1
  Br  Br27  1  0.53417928  0.66341334  0.67468025  1
  Br  Br28  1  0.16341283  0.53418155  0.92467557  1
  Br  Br29  1  0.46582133  0.66341154  0.17468076  1
  Br  Br30  1  0.53418078  0.33658486  0.17467483  1
  Br  Br31  1  0.03417912  0.83658731  0.67467850  1
