# generated using pymatgen
data_LiI
_symmetry_space_group_name_H-M   'P 1'
_cell_length_a   8.50187510
_cell_length_b   8.50213697
_cell_length_c   9.06728831
_cell_angle_alpha   90.00008154
_cell_angle_beta   89.99998596
_cell_angle_gamma   89.99967105
_symmetry_Int_Tables_number   1
_chemical_formula_structural   LiI
_chemical_formula_sum   'Li8 I8'
_cell_volume   655.42083458
_cell_formula_units_Z   8
loop_
 _symmetry_equiv_pos_site_id
 _symmetry_equiv_pos_as_xyz
  1  'x, y, z'
loop_
 _atom_site_type_symbol
 _atom_site_label
 _atom_site_symmetry_multiplicity
 _atom_site_fract_x
 _atom_site_fract_y
 _atom_site_fract_z
 _atom_site_occupancy
  Li  Li0  1  0.01509918  0.23990458  0.23904714  1
  Li  Li1  1  0.23989025  0.01509592  0.76094985  1
  Li  Li2  1  0.51509182  0.26009889  0.01095422  1
  Li  Li3  1  0.76010975  0.98490475  0.26095135  1
  Li  Li4  1  0.48490868  0.73990137  0.51095410  1
  Li  Li5  1  0.98490070  0.76009553  0.73904617  1
  Li  Li6  1  0.73989784  0.48489202  0.48904691  1
  Li  Li7  1  0.26010304  0.51510795  -0.01095243  1
  I  I8  1  0.66072423  0.68660194  0.26590813  1
  I  I9  1  0.68661212  0.66070797  0.73409375  1
  I  I10  1  0.16071099  0.81339944  -0.01590725  1
  I  I11  1  0.31338840  0.33929159  0.23409451  1
  I  I12  1  0.83928753  0.18659977  0.48409360  1
  I  I13  1  0.33927547  0.31339859  0.76590816  1
  I  I14  1  0.18661448  0.83928102  0.51590540  1
  I  I15  1  0.81338553  0.16071865  0.01590639  1
