# generated using pymatgen
data_NaBr
_symmetry_space_group_name_H-M   'P 1'
_cell_length_a   4.26449304
_cell_length_b   4.26344383
_cell_length_c   10.45772090
_cell_angle_alpha   90.04402426
_cell_angle_beta   89.97764155
_cell_angle_gamma   120.01968855
_symmetry_Int_Tables_number   1
_chemical_formula_structural   NaBr
_chemical_formula_sum   'Na3 Br3'
_cell_volume   164.63012567
_cell_formula_units_Z   3
loop_
 _symmetry_equiv_pos_site_id
 _symmetry_equiv_pos_as_xyz
  1  'x, y, z'
loop_
 _atom_site_type_symbol
 _atom_site_label
 _atom_site_symmetry_multiplicity
 _atom_site_fract_x
 _atom_site_fract_y
 _atom_site_fract_z
 _atom_site_occupancy
  Na  Na0  1  0.33131565  -0.00309422  0.34696449  1
  Na  Na1  1  0.00260948  0.33434413  0.68009809  1
  Na  Na2  1  0.66600366  0.66858244  0.01379076  1
  Br  Br3  1  0.33604076  0.00239601  0.84709415  1
  Br  Br4  1  -0.00225117  0.33359182  0.18032048  1
  Br  Br5  1  0.66628161  0.66417982  0.51374544  1
