# generated using pymatgen
data_LiI
_symmetry_space_group_name_H-M   'P 1'
_cell_length_a   4.35686084
_cell_length_b   4.35625014
_cell_length_c   11.34166797
_cell_angle_alpha   90.00108114
_cell_angle_beta   90.00020904
_cell_angle_gamma   90.04862002
_symmetry_Int_Tables_number   1
_chemical_formula_structural   LiI
_chemical_formula_sum   'Li4 I4'
_cell_volume   215.25996764
_cell_formula_units_Z   4
loop_
 _symmetry_equiv_pos_site_id
 _symmetry_equiv_pos_as_xyz
  1  'x, y, z'
loop_
 _atom_site_type_symbol
 _atom_site_label
 _atom_site_symmetry_multiplicity
 _atom_site_fract_x
 _atom_site_fract_y
 _atom_site_fract_z
 _atom_site_occupancy
  Li  Li0  1  0.02033214  0.49636358  0.68114541  1
  Li  Li1  1  0.49938175  -0.01482589  0.43237463  1
  Li  Li2  1  -0.02029164  0.50357514  0.18114537  1
  Li  Li3  1  0.50057345  0.01482626  0.93237449  1
  I  I4  1  0.49727147  0.00129006  0.18176623  1
  I  I5  1  0.00130813  0.50247535  0.93149558  1
  I  I6  1  0.50273856  -0.00126394  0.68176609  1
  I  I7  1  -0.00131386  0.49755944  0.43149567  1
