# generated using pymatgen
data_NaI
_symmetry_space_group_name_H-M   'P 1'
_cell_length_a   8.29152215
_cell_length_b   8.88727638
_cell_length_c   5.12577785
_cell_angle_alpha   90.00037530
_cell_angle_beta   89.99990262
_cell_angle_gamma   90.00001409
_symmetry_Int_Tables_number   1
_chemical_formula_structural   NaI
_chemical_formula_sum   'Na4 I4'
_cell_volume   377.71369526
_cell_formula_units_Z   4
loop_
 _symmetry_equiv_pos_site_id
 _symmetry_equiv_pos_as_xyz
  1  'x, y, z'
loop_
 _atom_site_type_symbol
 _atom_site_label
 _atom_site_symmetry_multiplicity
 _atom_site_fract_x
 _atom_site_fract_y
 _atom_site_fract_z
 _atom_site_occupancy
  Na  Na0  1  0.15581001  0.31221843  0.25146709  1
  Na  Na1  1  0.34419084  0.81221908  0.74852019  1
  Na  Na2  1  0.84419066  0.68778056  0.25147818  1
  Na  Na3  1  0.65581025  0.18778151  0.74853453  1
  I  I4  1  0.28117204  0.15848629  0.75097512  1
  I  I5  1  0.21882714  0.65848605  0.24900618  1
  I  I6  1  0.71882695  0.84151423  0.75099191  1
  I  I7  1  0.78117211  0.34151385  0.24902680  1
