# generated using pymatgen
data_LiBr
_symmetry_space_group_name_H-M   'P 1'
_cell_length_a   3.95325671
_cell_length_b   3.95327431
_cell_length_c   13.06275523
_cell_angle_alpha   89.99976163
_cell_angle_beta   90.00119981
_cell_angle_gamma   90.00030254
_symmetry_Int_Tables_number   1
_chemical_formula_structural   LiBr
_chemical_formula_sum   'Li4 Br4'
_cell_volume   204.14876467
_cell_formula_units_Z   4
loop_
 _symmetry_equiv_pos_site_id
 _symmetry_equiv_pos_as_xyz
  1  'x, y, z'
loop_
 _atom_site_type_symbol
 _atom_site_label
 _atom_site_symmetry_multiplicity
 _atom_site_fract_x
 _atom_site_fract_y
 _atom_site_fract_z
 _atom_site_occupancy
  Li  Li0  1  0.50905971  0.50936090  0.22165556  1
  Li  Li1  1  0.50937487  0.49091976  -0.02834464  1
  Li  Li2  1  0.49093766  0.49064186  0.72165298  1
  Li  Li3  1  0.49062599  0.50908088  0.47165254  1
  Br  Br4  1  -0.00846785  0.50364683  0.59677652  1
  Br  Br5  1  0.50364946  0.00846913  0.34677475  1
  Br  Br6  1  0.00846840  0.49634927  0.09677260  1
  Br  Br7  1  0.49635175  -0.00846862  0.84677445  1
