# generated using pymatgen
data_LiBr
_symmetry_space_group_name_H-M   'P 1'
_cell_length_a   11.54708352
_cell_length_b   11.54705527
_cell_length_c   7.88427080
_cell_angle_alpha   89.99948594
_cell_angle_beta   89.99953603
_cell_angle_gamma   120.00327400
_symmetry_Int_Tables_number   1
_chemical_formula_structural   LiBr
_chemical_formula_sum   'Li18 Br18'
_cell_volume   910.37723054
_cell_formula_units_Z   18
loop_
 _symmetry_equiv_pos_site_id
 _symmetry_equiv_pos_as_xyz
  1  'x, y, z'
loop_
 _atom_site_type_symbol
 _atom_site_label
 _atom_site_symmetry_multiplicity
 _atom_site_fract_x
 _atom_site_fract_y
 _atom_site_fract_z
 _atom_site_occupancy
  Li  Li0  1  0.86832704  0.73976643  0.24584298  1
  Li  Li1  1  0.86834423  0.12859552  0.74581043  1
  Li  Li2  1  0.59306869  0.79813069  0.41163191  1
  Li  Li3  1  0.20507490  0.40692717  0.41163295  1
  Li  Li4  1  0.92666109  0.46179616  0.57734863  1
  Li  Li5  1  0.26023765  0.12857826  0.24583827  1
  Li  Li6  1  0.20504902  0.79814122  0.91164979  1
  Li  Li7  1  0.59307387  0.79492451  0.91164577  1
  Li  Li8  1  0.87140273  0.13165402  0.24581020  1
  Li  Li9  1  0.87142544  0.73975748  0.74583394  1
  Li  Li10  1  0.20187466  0.40693990  0.91162598  1
  Li  Li11  1  0.20185421  0.79494425  0.41164711  1
  Li  Li12  1  0.53820688  0.46484570  0.57740140  1
  Li  Li13  1  0.53820287  0.07333978  0.07736569  1
  Li  Li14  1  0.26023912  0.13166906  0.74584229  1
  Li  Li15  1  0.92664439  0.46484974  0.07736651  1
  Li  Li16  1  0.53514745  0.07335802  0.57737252  1
  Li  Li17  1  0.53515041  0.46179381  0.07739790  1
  Br  Br18  1  0.78836866  0.57386057  0.50564189  1
  Br  Br19  1  0.78836050  0.21451143  0.00563498  1
  Br  Br20  1  0.75926796  0.87824256  0.67200577  1
  Br  Br21  1  0.11899881  0.24073956  0.67200372  1
  Br  Br22  1  0.09262736  0.54773094  0.83764875  1
  Br  Br23  1  0.42612697  0.21448432  0.50563531  1
  Br  Br24  1  0.11896701  0.87825978  0.17203990  1
  Br  Br25  1  0.75926377  0.88100384  0.17199012  1
  Br  Br26  1  0.78548998  0.21164399  0.50563949  1
  Br  Br27  1  0.78551142  0.57386988  0.00563117  1
  Br  Br28  1  0.12176137  0.24073884  0.17200772  1
  Br  Br29  1  0.12173262  0.88102266  0.67203873  1
  Br  Br30  1  0.45226168  0.54488678  0.83767475  1
  Br  Br31  1  0.45227035  0.90737410  0.33766837  1
  Br  Br32  1  0.42614637  0.21163223  0.00565254  1
  Br  Br33  1  0.09262443  0.54487686  0.33763879  1
  Br  Br34  1  0.45511393  0.90736718  0.83767116  1
  Br  Br35  1  0.45512213  0.54774278  0.33767114  1
