# generated using pymatgen
data_LiI
_symmetry_space_group_name_H-M   'P 1'
_cell_length_a   6.78426354
_cell_length_b   4.87558164
_cell_length_c   8.74421141
_cell_angle_alpha   90.00001287
_cell_angle_beta   83.57779945
_cell_angle_gamma   90.00008794
_symmetry_Int_Tables_number   1
_chemical_formula_structural   LiI
_chemical_formula_sum   'Li4 I4'
_cell_volume   287.41925291
_cell_formula_units_Z   4
loop_
 _symmetry_equiv_pos_site_id
 _symmetry_equiv_pos_as_xyz
  1  'x, y, z'
loop_
 _atom_site_type_symbol
 _atom_site_label
 _atom_site_symmetry_multiplicity
 _atom_site_fract_x
 _atom_site_fract_y
 _atom_site_fract_z
 _atom_site_occupancy
  Li  Li0  1  0.52616309  0.74901469  0.37223777  1
  Li  Li1  1  0.47381912  0.24901858  0.12775085  1
  Li  Li2  1  0.47383552  0.25098534  0.62776214  1
  Li  Li3  1  0.52618020  0.75098130  0.87224935  1
  I  I4  1  0.72356973  0.24927515  0.35646456  1
  I  I5  1  0.27642155  0.74927595  0.14352980  1
  I  I6  1  0.27643134  0.75072497  0.64353563  1
  I  I7  1  0.72357945  0.25072402  0.85646990  1
