# generated using pymatgen
data_LiI
_symmetry_space_group_name_H-M   'P 1'
_cell_length_a   7.79723168
_cell_length_b   7.79856861
_cell_length_c   9.41650199
_cell_angle_alpha   90.00024082
_cell_angle_beta   89.99972795
_cell_angle_gamma   120.01547454
_symmetry_Int_Tables_number   1
_chemical_formula_structural   LiI
_chemical_formula_sum   'Li6 I6'
_cell_volume   495.80149108
_cell_formula_units_Z   6
loop_
 _symmetry_equiv_pos_site_id
 _symmetry_equiv_pos_as_xyz
  1  'x, y, z'
loop_
 _atom_site_type_symbol
 _atom_site_label
 _atom_site_symmetry_multiplicity
 _atom_site_fract_x
 _atom_site_fract_y
 _atom_site_fract_z
 _atom_site_occupancy
  Li  Li0  1  0.39503357  0.78303697  0.10545321  1
  Li  Li1  1  0.61171732  0.39469859  0.27180117  1
  Li  Li2  1  0.38829882  0.60531822  0.77180349  1
  Li  Li3  1  0.78296418  0.38840460  0.93859514  1
  Li  Li4  1  0.21703655  0.61158017  0.43859530  1
  Li  Li5  1  0.60495024  0.21696228  0.60545240  1
  I  I6  1  -0.00204359  0.49891670  0.68762262  1
  I  I7  1  0.49873098  -0.00185739  0.85446831  1
  I  I8  1  0.50121660  0.00185636  0.35446737  1
  I  I9  1  0.49834413  0.50031321  0.52113181  1
  I  I10  1  0.50171102  0.49974087  0.02113191  1
  I  I11  1  0.00204018  0.50102943  0.18762443  1
