# generated using pymatgen
data_LiBr
_symmetry_space_group_name_H-M   'P 1'
_cell_length_a   7.79390464
_cell_length_b   7.79390800
_cell_length_c   16.62446590
_cell_angle_alpha   90.00004945
_cell_angle_beta   89.99994638
_cell_angle_gamma   120.00915960
_symmetry_Int_Tables_number   1
_chemical_formula_structural   LiBr
_chemical_formula_sum   'Li18 Br18'
_cell_volume   874.47742829
_cell_formula_units_Z   18
loop_
 _symmetry_equiv_pos_site_id
 _symmetry_equiv_pos_as_xyz
  1  'x, y, z'
loop_
 _atom_site_type_symbol
 _atom_site_label
 _atom_site_symmetry_multiplicity
 _atom_site_fract_x
 _atom_site_fract_y
 _atom_site_fract_z
 _atom_site_occupancy
  Li  Li0  1  0.66704856  0.66623704  0.47242653  1
  Li  Li1  1  0.66703514  0.00079631  0.97242796  1
  Li  Li2  1  0.66709251  -0.00024793  0.63943610  1
  Li  Li3  1  0.33265997  0.33291385  0.63943257  1
  Li  Li4  1  0.00043598  0.33407681  0.80562767  1
  Li  Li5  1  0.33376212  0.00081313  0.47242483  1
  Li  Li6  1  0.33265802  -0.00025292  0.13942936  1
  Li  Li7  1  0.66708600  0.66734015  0.13943269  1
  Li  Li8  1  -0.00079706  0.33296422  0.47242788  1
  Li  Li9  1  -0.00080990  0.66623847  0.97242437  1
  Li  Li10  1  0.00024786  0.33290852  0.13943596  1
  Li  Li11  1  0.00025378  0.66734335  0.63942960  1
  Li  Li12  1  0.66592666  0.66636603  0.80562952  1
  Li  Li13  1  0.66592177  -0.00043610  0.30562758  1
  Li  Li14  1  0.33376229  0.33295118  0.97242641  1
  Li  Li15  1  0.00044139  0.66636374  0.30562690  1
  Li  Li16  1  0.33363600  -0.00044152  0.80562695  1
  Li  Li17  1  0.33363304  0.33407200  0.30562938  1
  Br  Br18  1  -0.00031812  0.33345424  0.64012520  1
  Br  Br19  1  -0.00034187  0.66620965  0.14012266  1
  Br  Br20  1  -0.00009526  0.66700003  0.80673709  1
  Br  Br21  1  0.66709270  0.00008740  0.80673347  1
  Br  Br22  1  0.33323184  -0.00040133  0.97348020  1
  Br  Br23  1  0.66656125  0.66623700  0.64012155  1
  Br  Br24  1  0.66711109  0.66701722  0.30673543  1
  Br  Br25  1  -0.00008676  0.33290776  0.30673356  1
  Br  Br26  1  0.33379037  0.00034131  0.64012272  1
  Br  Br27  1  0.33376309  0.33343864  0.14012150  1
  Br  Br28  1  0.33299964  0.00009494  0.30673723  1
  Br  Br29  1  0.33298260  0.33288811  0.80673543  1
  Br  Br30  1  0.00041714  0.33364495  0.97348222  1
  Br  Br31  1  0.00040092  0.66676787  0.47348042  1
  Br  Br32  1  0.66654607  0.00031902  0.14012515  1
  Br  Br33  1  0.33322844  0.33363187  0.47348420  1
  Br  Br34  1  0.66636793  0.66677171  0.97348417  1
  Br  Br35  1  0.66635484  -0.00041674  0.47348230  1
