# generated using pymatgen
data_LiBr
_symmetry_space_group_name_H-M   'P 1'
_cell_length_a   7.81066769
_cell_length_b   7.81067446
_cell_length_c   12.73743612
_cell_angle_alpha   89.99991831
_cell_angle_beta   90.00012169
_cell_angle_gamma   89.99989018
_symmetry_Int_Tables_number   1
_chemical_formula_structural   LiBr
_chemical_formula_sum   'Li16 Br16'
_cell_volume   777.06744893
_cell_formula_units_Z   16
loop_
 _symmetry_equiv_pos_site_id
 _symmetry_equiv_pos_as_xyz
  1  'x, y, z'
loop_
 _atom_site_type_symbol
 _atom_site_label
 _atom_site_symmetry_multiplicity
 _atom_site_fract_x
 _atom_site_fract_y
 _atom_site_fract_z
 _atom_site_occupancy
  Li  Li0  1  0.18538872  0.81495052  0.25003358  1
  Li  Li1  1  0.68505103  0.68538801  0.24996705  1
  Li  Li2  1  0.18538704  0.31495291  -0.00003226  1
  Li  Li3  1  0.81461910  0.18505042  0.25003162  1
  Li  Li4  1  0.31495007  0.31461332  0.24996798  1
  Li  Li5  1  0.18504836  0.68538144  0.50003107  1
  Li  Li6  1  0.81494848  0.31461480  0.50003190  1
  Li  Li7  1  0.68505200  0.18539047  0.00003204  1
  Li  Li8  1  0.31494975  0.81461589  0.00003283  1
  Li  Li9  1  0.31461311  0.68504825  0.75003171  1
  Li  Li10  1  0.81494587  0.81461225  0.74996933  1
  Li  Li11  1  0.68538240  0.31494715  0.75003160  1
  Li  Li12  1  0.18504632  0.18538183  0.74996746  1
  Li  Li13  1  0.68538607  0.81494781  0.49996866  1
  Li  Li14  1  0.31461504  0.18504743  0.49996694  1
  Li  Li15  1  0.81461575  0.68505304  -0.00003196  1
  Br  Br16  1  0.93814138  0.24967512  0.87509623  1
  Br  Br17  1  0.25032942  0.43813809  0.62490360  1
  Br  Br18  1  0.93814236  0.74967399  0.37490319  1
  Br  Br19  1  0.06185930  0.75033324  0.87509671  1
  Br  Br20  1  0.74966766  0.56185750  0.62490323  1
  Br  Br21  1  0.75033505  0.43814380  0.12509775  1
  Br  Br22  1  0.24967359  0.56186017  0.12509726  1
  Br  Br23  1  0.25032925  0.93813778  0.62509589  1
  Br  Br24  1  0.74967099  0.06185731  0.62509798  1
  Br  Br25  1  0.56185916  0.25032591  0.37509637  1
  Br  Br26  1  0.24966583  0.06185967  0.12490305  1
  Br  Br27  1  0.43814125  0.74966690  0.37509891  1
  Br  Br28  1  0.75032924  0.93814442  0.12490130  1
  Br  Br29  1  0.43813928  0.24966710  0.87490209  1
  Br  Br30  1  0.56185713  0.75032799  0.87490308  1
  Br  Br31  1  0.06186001  0.25033549  0.37490379  1
