# generated using pymatgen
data_LiI
_symmetry_space_group_name_H-M   'P 1'
_cell_length_a   12.49374791
_cell_length_b   12.49371999
_cell_length_c   9.05545689
_cell_angle_alpha   90.01893783
_cell_angle_beta   89.98123295
_cell_angle_gamma   120.02019814
_symmetry_Int_Tables_number   1
_chemical_formula_structural   LiI
_chemical_formula_sum   'Li18 I18'
_cell_volume   1223.87495265
_cell_formula_units_Z   18
loop_
 _symmetry_equiv_pos_site_id
 _symmetry_equiv_pos_as_xyz
  1  'x, y, z'
loop_
 _atom_site_type_symbol
 _atom_site_label
 _atom_site_symmetry_multiplicity
 _atom_site_fract_x
 _atom_site_fract_y
 _atom_site_fract_z
 _atom_site_occupancy
  Li  Li0  1  0.39595146  0.39224057  0.22404310  1
  Li  Li1  1  0.39577448  0.00381000  0.72406700  1
  Li  Li2  1  0.94113139  0.27083209  0.39053167  1
  Li  Li3  1  0.32991019  0.05896152  0.39049955  1
  Li  Li4  1  0.27425912  0.33671831  0.55725391  1
  Li  Li5  1  0.60756626  0.00334605  0.22388593  1
  Li  Li6  1  0.32955975  0.27096848  0.89063205  1
  Li  Li7  1  0.94104172  0.67009648  0.89049641  1
  Li  Li8  1  -0.00381782  0.60422486  0.22406789  1
  Li  Li9  1  -0.00334999  0.39243497  0.72388885  1
  Li  Li10  1  0.72916793  0.05887202  0.89052819  1
  Li  Li11  1  0.72903180  0.67043397  0.39062752  1
  Li  Li12  1  0.66289111  0.93757740  0.55733571  1
  Li  Li13  1  0.66327940  0.72573945  0.05725068  1
  Li  Li14  1  0.60776344  0.60404600  0.72404323  1
  Li  Li15  1  0.27438170  0.93740262  0.05726308  1
  Li  Li16  1  0.06260180  0.72561549  0.55726370  1
  Li  Li17  1  0.06242172  0.33711815  0.05734145  1
  I  I18  1  0.55894772  0.46951071  0.98499894  1
  I  I19  1  0.55896952  0.08958912  0.48510669  1
  I  I20  1  0.86376575  0.10770179  0.15149711  1
  I  I21  1  0.24388836  0.13587915  0.15163820  1
  I  I22  1  0.19749354  0.42277822  0.31831849  1
  I  I23  1  0.53074680  0.08941619  0.98507353  1
  I  I24  1  0.24365436  0.10763688  0.65166544  1
  I  I25  1  0.86412305  0.75611053  0.65163182  1
  I  I26  1  -0.08959147  0.44103413  0.98510582  1
  I  I27  1  -0.08941779  0.46925094  0.48507244  1
  I  I28  1  0.89230248  0.13623489  0.65149716  1
  I  I29  1  0.89236247  0.75634854  0.15166064  1
  I  I30  1  0.57691609  0.77428081  0.31835094  1
  I  I31  1  0.57722489  0.80250709  0.81831305  1
  I  I32  1  0.53048709  0.44104877  0.48499883  1
  I  I33  1  0.19725253  0.77440230  0.81810243  1
  I  I34  1  0.22559531  0.80274906  0.31810015  1
  I  I35  1  0.22571385  0.42308246  0.81835332  1
