# generated using pymatgen
data_LiBr
_symmetry_space_group_name_H-M   'P 1'
_cell_length_a   10.38180554
_cell_length_b   10.38180508
_cell_length_c   12.25066400
_cell_angle_alpha   90.00430724
_cell_angle_beta   89.99570231
_cell_angle_gamma   120.00501666
_symmetry_Int_Tables_number   1
_chemical_formula_structural   LiBr
_chemical_formula_sum   'Li18 Br18'
_cell_volume   1143.44179568
_cell_formula_units_Z   18
loop_
 _symmetry_equiv_pos_site_id
 _symmetry_equiv_pos_as_xyz
  1  'x, y, z'
loop_
 _atom_site_type_symbol
 _atom_site_label
 _atom_site_symmetry_multiplicity
 _atom_site_fract_x
 _atom_site_fract_y
 _atom_site_fract_z
 _atom_site_occupancy
  Li  Li0  1  0.75146799  0.00025939  0.81638859  1
  Li  Li1  1  0.75149438  0.75121998  0.31640436  1
  Li  Li2  1  0.33307736  0.91520132  0.98305327  1
  Li  Li3  1  0.58213127  0.66694437  0.98305354  1
  Li  Li4  1  0.66638664  0.08453432  0.14972110  1
  Li  Li5  1  -0.00027715  0.75120383  0.81638667  1
  Li  Li6  1  0.58211205  0.91517048  0.48307207  1
  Li  Li7  1  0.33305684  0.41786937  0.48305262  1
  Li  Li8  1  0.24878044  0.24850448  0.81640570  1
  Li  Li9  1  0.24879578  0.00027711  0.31638764  1
  Li  Li10  1  0.08479899  0.66692347  0.48305362  1
  Li  Li11  1  0.08482945  0.41788791  0.98307272  1
  Li  Li12  1  0.91544713  0.58183799  0.14973879  1
  Li  Li13  1  0.91546466  0.33361152  0.64972006  1
  Li  Li14  1  -0.00025797  0.24853462  0.31638685  1
  Li  Li15  1  0.66640932  0.58186807  0.64972127  1
  Li  Li16  1  0.41813096  0.33358913  0.14971947  1
  Li  Li17  1  0.41816223  0.08455290  0.64973911  1
  Br  Br18  1  0.42123117  0.08831405  0.14942702  1
  Br  Br19  1  0.42122746  0.33289958  0.64943342  1
  Br  Br20  1  0.24501638  0.24543301  0.31609278  1
  Br  Br21  1  0.00039251  0.75497413  0.31611305  1
  Br  Br22  1  0.57835882  0.66627290  0.48277896  1
  Br  Br23  1  0.91168987  0.33293899  0.14944537  1
  Br  Br24  1  0.00043476  0.24544062  0.81610039  1
  Br  Br25  1  0.24502558  -0.00039294  0.81611286  1
  Br  Br26  1  0.66709992  0.57877192  0.14943291  1
  Br  Br27  1  0.66706090  0.08830769  0.64944579  1
  Br  Br28  1  0.75456762  0.75498374  0.81609423  1
  Br  Br29  1  0.75455970  -0.00043346  0.31610041  1
  Br  Br30  1  0.33376603  0.91210587  0.48276745  1
  Br  Br31  1  0.33372693  0.42164200  -0.01722083  1
  Br  Br32  1  0.91168472  0.57876794  0.64942650  1
  Br  Br33  1  0.57835139  0.91210024  -0.01723937  1
  Br  Br34  1  0.08790079  0.42164950  0.48276019  1
  Br  Br35  1  0.08789511  0.66623396  -0.01723306  1
