# generated using pymatgen
data_LiI
_symmetry_space_group_name_H-M   'P 1'
_cell_length_a   4.31477812
_cell_length_b   4.31481387
_cell_length_c   11.56143897
_cell_angle_alpha   90.00030295
_cell_angle_beta   90.00011644
_cell_angle_gamma   89.99870971
_symmetry_Int_Tables_number   1
_chemical_formula_structural   LiI
_chemical_formula_sum   'Li4 I4'
_cell_volume   215.24467932
_cell_formula_units_Z   4
loop_
 _symmetry_equiv_pos_site_id
 _symmetry_equiv_pos_as_xyz
  1  'x, y, z'
loop_
 _atom_site_type_symbol
 _atom_site_label
 _atom_site_symmetry_multiplicity
 _atom_site_fract_x
 _atom_site_fract_y
 _atom_site_fract_z
 _atom_site_occupancy
  Li  Li0  1  0.49806700  -0.00304567  0.35659291  1
  Li  Li1  1  -0.00309532  0.50187900  0.10660258  1
  Li  Li2  1  0.50195605  0.00305786  0.85659145  1
  Li  Li3  1  0.00309171  0.49814011  0.60660229  1
  I  I4  1  0.49752505  0.00061764  0.10643663  1
  I  I5  1  0.00055411  0.50247727  0.85644023  1
  I  I6  1  0.50246295  -0.00063317  0.60643680  1
  I  I7  1  -0.00056154  0.49750695  0.35644062  1
