# generated using pymatgen
data_NaI
_symmetry_space_group_name_H-M   'P 1'
_cell_length_a   6.19977422
_cell_length_b   6.19977455
_cell_length_c   16.15979489
_cell_angle_alpha   90.00080537
_cell_angle_beta   90.00046035
_cell_angle_gamma   89.99923088
_symmetry_Int_Tables_number   1
_chemical_formula_structural   NaI
_chemical_formula_sum   'Na8 I8'
_cell_volume   621.13730776
_cell_formula_units_Z   8
loop_
 _symmetry_equiv_pos_site_id
 _symmetry_equiv_pos_as_xyz
  1  'x, y, z'
loop_
 _atom_site_type_symbol
 _atom_site_label
 _atom_site_symmetry_multiplicity
 _atom_site_fract_x
 _atom_site_fract_y
 _atom_site_fract_z
 _atom_site_occupancy
  Na  Na0  1  0.45940514  0.24062105  0.33741163  1
  Na  Na1  1  0.24061813  0.45940286  0.66258658  1
  Na  Na2  1  -0.04059442  0.25938146  0.91258787  1
  Na  Na3  1  0.75937800  0.54059597  0.16258840  1
  Na  Na4  1  0.04059885  0.74062170  0.41258728  1
  Na  Na5  1  0.54059833  0.75938074  0.83741336  1
  Na  Na6  1  0.74061800  0.04059485  0.58741223  1
  Na  Na7  1  0.25937798  -0.04059839  0.08741266  1
  I  I8  1  0.25834528  0.46989646  0.14087411  1
  I  I9  1  0.46989898  0.25834922  0.85912594  1
  I  I10  1  0.75834552  0.03010038  0.10912586  1
  I  I11  1  0.53010471  0.74165378  0.35912567  1
  I  I12  1  0.24164989  0.96989478  0.60912564  1
  I  I13  1  0.74164960  0.53010221  0.64087433  1
  I  I14  1  0.96990019  0.24165374  0.39087441  1
  I  I15  1  0.03010581  0.75834920  0.89087403  1
