# generated using pymatgen
data_KI
_symmetry_space_group_name_H-M   'P 1'
_cell_length_a   9.78564007
_cell_length_b   4.53399757
_cell_length_c   8.42697783
_cell_angle_alpha   90.00000883
_cell_angle_beta   90.00005984
_cell_angle_gamma   90.00001133
_symmetry_Int_Tables_number   1
_chemical_formula_structural   KI
_chemical_formula_sum   'K4 I4'
_cell_volume   373.88872842
_cell_formula_units_Z   4
loop_
 _symmetry_equiv_pos_site_id
 _symmetry_equiv_pos_as_xyz
  1  'x, y, z'
loop_
 _atom_site_type_symbol
 _atom_site_label
 _atom_site_symmetry_multiplicity
 _atom_site_fract_x
 _atom_site_fract_y
 _atom_site_fract_z
 _atom_site_occupancy
  K  K0  1  0.12398336  0.49905589  0.30995876  1
  K  K1  1  0.62398352  0.50094406  0.30995919  1
  K  K2  1  0.87601613  0.50094456  0.80995950  1
  K  K3  1  0.37601607  0.49905549  0.80995981  1
  I  I4  1  0.37389178  -0.00210710  0.14484317  1
  I  I5  1  0.87389171  0.00210696  0.14484318  1
  I  I6  1  0.62610872  0.00210707  0.64484367  1
  I  I7  1  0.12610871  -0.00210694  0.64484351  1
