# generated using pymatgen
data_NaI
_symmetry_space_group_name_H-M   'P 1'
_cell_length_a   12.89804562
_cell_length_b   12.89806958
_cell_length_c   12.89805874
_cell_angle_alpha   89.99990872
_cell_angle_beta   90.00015573
_cell_angle_gamma   90.00000369
_symmetry_Int_Tables_number   1
_chemical_formula_structural   NaI
_chemical_formula_sum   'Na24 I24'
_cell_volume   2145.71963143
_cell_formula_units_Z   24
loop_
 _symmetry_equiv_pos_site_id
 _symmetry_equiv_pos_as_xyz
  1  'x, y, z'
loop_
 _atom_site_type_symbol
 _atom_site_label
 _atom_site_symmetry_multiplicity
 _atom_site_fract_x
 _atom_site_fract_y
 _atom_site_fract_z
 _atom_site_occupancy
  Na  Na0  1  0.62558208  0.37461067  0.10493769  1
  Na  Na1  1  0.62558151  0.62538969  0.89505875  1
  Na  Na2  1  0.39506075  0.87441840  0.87461112  1
  Na  Na3  1  0.10493957  0.37441817  0.62539321  1
  Na  Na4  1  0.37461033  0.89506125  0.37441844  1
  Na  Na5  1  0.10493948  0.62558123  0.37460929  1
  Na  Na6  1  0.89506126  0.62558097  0.62538607  1
  Na  Na7  1  0.89506090  0.37441838  0.37461109  1
  Na  Na8  1  0.62538906  0.10493956  0.37441816  1
  Na  Na9  1  0.37461006  0.10493928  0.62558376  1
  Na  Na10  1  0.62538890  0.89506118  0.62557946  1
  Na  Na11  1  0.37441846  0.37461106  0.89506426  1
  Na  Na12  1  0.37441888  0.62538957  0.10494020  1
  Na  Na13  1  0.60493943  0.12558123  0.87460930  1
  Na  Na14  1  0.39506113  0.12558099  0.12538611  1
  Na  Na15  1  0.60493965  0.87441814  0.12539325  1
  Na  Na16  1  0.87461028  0.39506120  0.87441839  1
  Na  Na17  1  0.12538909  0.60493960  0.87441810  1
  Na  Na18  1  0.87461010  0.60493921  0.12558373  1
  Na  Na19  1  0.12538893  0.39506121  0.12557944  1
  Na  Na20  1  0.87441849  0.87461104  0.39506411  1
  Na  Na21  1  0.87441884  0.12538958  0.60494032  1
  Na  Na22  1  0.12558210  0.87461066  0.60493771  1
  Na  Na23  1  0.12558151  0.12538970  0.39505873  1
  I  I24  1  0.62376998  0.37584033  0.86514633  1
  I  I25  1  0.62377031  0.62415935  0.13485186  1
  I  I26  1  0.63485263  0.87622966  0.87583990  1
  I  I27  1  0.86514781  0.37622975  0.62415992  1
  I  I28  1  0.37583976  0.13485198  0.37622885  1
  I  I29  1  0.86514795  0.62377076  0.37584023  1
  I  I30  1  0.13485258  0.62377094  0.62415971  1
  I  I31  1  0.13485268  0.37622967  0.37583990  1
  I  I32  1  0.62415991  0.86514762  0.37623083  1
  I  I33  1  0.37584011  0.86514716  0.62377079  1
  I  I34  1  0.62416020  0.13485174  0.62376938  1
  I  I35  1  0.37622936  0.37583955  0.13485375  1
  I  I36  1  0.37622903  0.62416022  0.86514812  1
  I  I37  1  0.36514786  0.12377080  0.87584029  1
  I  I38  1  0.63485257  0.12377095  0.12415972  1
  I  I39  1  0.36514784  0.87622971  0.12415993  1
  I  I40  1  0.87583976  0.63485198  0.87622884  1
  I  I41  1  0.12415988  0.36514761  0.87623084  1
  I  I42  1  0.87584014  0.36514702  0.12377075  1
  I  I43  1  0.12416023  0.63485179  0.12376932  1
  I  I44  1  0.87622932  0.87583949  0.63485366  1
  I  I45  1  0.87622900  0.12416025  0.36514821  1
  I  I46  1  0.12377005  0.87584033  0.36514632  1
  I  I47  1  0.12377027  0.12415939  0.63485186  1
