# generated using pymatgen
data_NaI
_symmetry_space_group_name_H-M   'P 1'
_cell_length_a   9.24371011
_cell_length_b   4.61811068
_cell_length_c   6.51823607
_cell_angle_alpha   89.99964903
_cell_angle_beta   90.00000403
_cell_angle_gamma   89.99991582
_symmetry_Int_Tables_number   1
_chemical_formula_structural   NaI
_chemical_formula_sum   'Na4 I4'
_cell_volume   278.25356599
_cell_formula_units_Z   4
loop_
 _symmetry_equiv_pos_site_id
 _symmetry_equiv_pos_as_xyz
  1  'x, y, z'
loop_
 _atom_site_type_symbol
 _atom_site_label
 _atom_site_symmetry_multiplicity
 _atom_site_fract_x
 _atom_site_fract_y
 _atom_site_fract_z
 _atom_site_occupancy
  Na  Na0  1  0.87392514  0.24814129  0.48442127  1
  Na  Na1  1  0.37392513  0.25185849  0.48442066  1
  Na  Na2  1  0.12607439  0.75185900  0.98436888  1
  Na  Na3  1  0.62607435  0.74814114  0.98436955  1
  I  I4  1  0.62395044  0.74894251  0.48470834  1
  I  I5  1  0.12395045  0.75105762  0.48470708  1
  I  I6  1  0.37605004  0.25105768  -0.01527818  1
  I  I7  1  0.87605005  0.24894228  -0.01527692  1
