# generated using pymatgen
data_LiI
_symmetry_space_group_name_H-M   'P 1'
_cell_length_a   8.70267680
_cell_length_b   8.70310618
_cell_length_c   14.04091726
_cell_angle_alpha   90.00003672
_cell_angle_beta   90.00001575
_cell_angle_gamma   90.00001157
_symmetry_Int_Tables_number   1
_chemical_formula_structural   LiI
_chemical_formula_sum   'Li16 I16'
_cell_volume   1063.46357006
_cell_formula_units_Z   16
loop_
 _symmetry_equiv_pos_site_id
 _symmetry_equiv_pos_as_xyz
  1  'x, y, z'
loop_
 _atom_site_type_symbol
 _atom_site_label
 _atom_site_symmetry_multiplicity
 _atom_site_fract_x
 _atom_site_fract_y
 _atom_site_fract_z
 _atom_site_occupancy
  Li  Li0  1  0.26196588  0.26192968  0.72331383  1
  Li  Li1  1  0.76189595  0.26192073  0.97330931  1
  Li  Li2  1  0.73803429  0.26193084  0.22331411  1
  Li  Li3  1  0.73803333  0.73806909  0.72331440  1
  Li  Li4  1  0.23810396  0.73807765  0.97330977  1
  Li  Li5  1  0.73810447  0.76192055  0.97330940  1
  Li  Li6  1  0.26189595  0.23807817  0.97330979  1
  Li  Li7  1  0.23810448  0.26192213  0.47330958  1
  Li  Li8  1  0.76189523  0.73808009  0.47330950  1
  Li  Li9  1  0.23803445  0.23806917  0.22331416  1
  Li  Li10  1  0.73810406  0.23807877  0.47330972  1
  Li  Li11  1  0.76196692  0.76193001  0.22331411  1
  Li  Li12  1  0.26189599  0.76192064  0.47330928  1
  Li  Li13  1  0.23803341  0.76193099  0.72331436  1
  Li  Li14  1  0.76196615  0.23807056  0.72331407  1
  Li  Li15  1  0.26196667  0.73807006  0.22331412  1
  I  I16  1  0.74934026  0.51171633  0.09843772  1
  I  I17  1  0.01170490  0.74933375  0.34843591  1
  I  I18  1  0.25065968  0.51171687  0.59843785  1
  I  I19  1  0.25065964  0.48828313  0.09843798  1
  I  I20  1  0.98829547  0.25066647  0.34843613  1
  I  I21  1  0.48829530  0.24933374  0.34843610  1
  I  I22  1  0.51170484  0.75066659  0.34843576  1
  I  I23  1  0.98829514  0.74933371  0.84843624  1
  I  I24  1  0.01170481  0.25066659  0.84843597  1
  I  I25  1  0.75065960  0.98828374  0.59843813  1
  I  I26  1  0.48829479  0.75066654  0.84843636  1
  I  I27  1  0.24934020  0.01171607  0.59843735  1
  I  I28  1  0.51170424  0.24933386  0.84843602  1
  I  I29  1  0.75065965  0.01171620  0.09843760  1
  I  I30  1  0.24934010  0.98828297  0.09843777  1
  I  I31  1  0.74934022  0.48828431  0.59843743  1
