# generated using pymatgen
data_KBr
_symmetry_space_group_name_H-M   'P 1'
_cell_length_a   4.77584167
_cell_length_b   4.77673496
_cell_length_c   11.38770818
_cell_angle_alpha   89.99814188
_cell_angle_beta   90.00587425
_cell_angle_gamma   119.98295683
_symmetry_Int_Tables_number   1
_chemical_formula_structural   KBr
_chemical_formula_sum   'K3 Br3'
_cell_volume   225.02075783
_cell_formula_units_Z   3
loop_
 _symmetry_equiv_pos_site_id
 _symmetry_equiv_pos_as_xyz
  1  'x, y, z'
loop_
 _atom_site_type_symbol
 _atom_site_label
 _atom_site_symmetry_multiplicity
 _atom_site_fract_x
 _atom_site_fract_y
 _atom_site_fract_z
 _atom_site_occupancy
  K  K0  1  0.66619633  -0.00009600  0.28112933  1
  K  K1  1  0.00003870  0.66611744  0.61447354  1
  K  K2  1  0.33379335  0.33371003  0.94790724  1
  Br  Br3  1  0.66726786  0.00087933  0.78053255  1
  Br  Br4  1  -0.00086419  0.66639543  0.11398441  1
  Br  Br5  1  0.33356794  0.33299376  0.44734096  1
