# generated using pymatgen
data_NaBr
_symmetry_space_group_name_H-M   'P 1'
_cell_length_a   7.26144253
_cell_length_b   4.20180839
_cell_length_c   7.22564020
_cell_angle_alpha   90.00000655
_cell_angle_beta   90.00000953
_cell_angle_gamma   89.99999969
_symmetry_Int_Tables_number   1
_chemical_formula_structural   NaBr
_chemical_formula_sum   'Na4 Br4'
_cell_volume   220.46288246
_cell_formula_units_Z   4
loop_
 _symmetry_equiv_pos_site_id
 _symmetry_equiv_pos_as_xyz
  1  'x, y, z'
loop_
 _atom_site_type_symbol
 _atom_site_label
 _atom_site_symmetry_multiplicity
 _atom_site_fract_x
 _atom_site_fract_y
 _atom_site_fract_z
 _atom_site_occupancy
  Na  Na0  1  0.75006231  0.75369563  0.72014752  1
  Na  Na1  1  0.25006230  0.24630435  0.72015102  1
  Na  Na2  1  0.24993768  0.24630424  0.22015119  1
  Na  Na3  1  0.74993766  0.75369576  0.22014768  1
  Br  Br4  1  0.91633134  0.25170137  -0.03020745  1
  Br  Br5  1  0.41633131  0.74829866  -0.03020708  1
  Br  Br6  1  0.08366872  0.74829866  0.46979285  1
  Br  Br7  1  0.58366869  0.25170133  0.46979252  1
