# generated using pymatgen
data_LiBr
_symmetry_space_group_name_H-M   'P 1'
_cell_length_a   11.54078586
_cell_length_b   11.54077220
_cell_length_c   7.91213914
_cell_angle_alpha   90.00037452
_cell_angle_beta   89.99972984
_cell_angle_gamma   120.00106726
_symmetry_Int_Tables_number   1
_chemical_formula_structural   LiBr
_chemical_formula_sum   'Li18 Br18'
_cell_volume   912.62030685
_cell_formula_units_Z   18
loop_
 _symmetry_equiv_pos_site_id
 _symmetry_equiv_pos_as_xyz
  1  'x, y, z'
loop_
 _atom_site_type_symbol
 _atom_site_label
 _atom_site_symmetry_multiplicity
 _atom_site_fract_x
 _atom_site_fract_y
 _atom_site_fract_z
 _atom_site_occupancy
  Li  Li0  1  0.13177894  0.87219678  0.00660226  1
  Li  Li1  1  0.13175355  0.25956438  0.50654607  1
  Li  Li2  1  0.46113222  0.53491389  0.17322874  1
  Li  Li3  1  0.07378138  0.53885324  0.17320279  1
  Li  Li4  1  0.79458944  0.59289884  0.33989137  1
  Li  Li5  1  0.12783203  0.25958975  0.00655425  1
  Li  Li6  1  0.07379495  0.53493103  0.67320713  1
  Li  Li7  1  0.46114607  0.92622059  0.67319883  1
  Li  Li8  1  0.74043277  0.86824395  0.00654893  1
  Li  Li9  1  0.74040818  0.87216667  0.50655889  1
  Li  Li10  1  0.46508671  0.53886680  0.67322515  1
  Li  Li11  1  0.46507097  0.92620914  0.17320181  1
  Li  Li12  1  0.40712307  0.20169107  0.33988781  1
  Li  Li13  1  0.40710266  0.20541481  0.83988575  1
  Li  Li14  1  0.12780246  0.86822014  0.50659998  1
  Li  Li15  1  0.79455936  0.20166396  0.83990030  1
  Li  Li16  1  0.79833798  0.20544093  0.33989953  1
  Li  Li17  1  0.79830946  0.59287801  0.83989359  1
  Br  Br18  1  0.57449651  0.78899072  0.74628588  1
  Br  Br19  1  0.57452443  0.78552140  0.24626579  1
  Br  Br20  1  0.54437692  0.09215841  0.91293321  1
  Br  Br21  1  0.54776424  0.45563351  0.91291232  1
  Br  Br22  1  0.87766058  0.11884787  0.07956802  1
  Br  Br23  1  0.21099055  0.78552466  0.74627832  1
  Br  Br24  1  0.54777758  0.09214066  0.41291758  1
  Br  Br25  1  0.54436985  0.45223640  0.41291079  1
  Br  Br26  1  0.21447854  0.42547186  0.74626314  1
  Br  Br27  1  0.21447712  0.78900927  0.24627757  1
  Br  Br28  1  0.90784463  0.45562422  0.41294108  1
  Br  Br29  1  0.90786019  0.45222219  0.91292396  1
  Br  Br30  1  0.88116628  0.75881416  0.07959503  1
  Br  Br31  1  0.88115098  0.12233572  0.57956868  1
  Br  Br32  1  0.21100741  0.42549997  0.24628382  1
  Br  Br33  1  0.87766242  0.75883584  0.57961356  1
  Br  Br34  1  0.24116386  0.12233613  0.07960864  1
  Br  Br35  1  0.24118571  0.11883302  0.57958848  1
