# generated using pymatgen
data_LiBr
_symmetry_space_group_name_H-M   'P 1'
_cell_length_a   5.57671340
_cell_length_b   7.54526745
_cell_length_c   3.90712597
_cell_angle_alpha   90.00074324
_cell_angle_beta   89.99994444
_cell_angle_gamma   89.99997957
_symmetry_Int_Tables_number   1
_chemical_formula_structural   LiBr
_chemical_formula_sum   'Li4 Br4'
_cell_volume   164.40324226
_cell_formula_units_Z   4
loop_
 _symmetry_equiv_pos_site_id
 _symmetry_equiv_pos_as_xyz
  1  'x, y, z'
loop_
 _atom_site_type_symbol
 _atom_site_label
 _atom_site_symmetry_multiplicity
 _atom_site_fract_x
 _atom_site_fract_y
 _atom_site_fract_z
 _atom_site_occupancy
  Li  Li0  1  0.00143142  0.37650213  0.24833583  1
  Li  Li1  1  -0.00142771  0.87650324  0.25161838  1
  Li  Li2  1  0.49857129  0.62349542  0.74838501  1
  Li  Li3  1  0.50143131  0.12349640  0.75166134  1
  Br  Br4  1  -0.00048369  0.62574532  0.75058266  1
  Br  Br5  1  0.00048066  0.12574432  0.74940814  1
  Br  Br6  1  0.50048066  0.37425708  0.25059242  1
  Br  Br7  1  0.49951606  0.87425610  0.24941622  1
