# generated using pymatgen
data_LiI
_symmetry_space_group_name_H-M   'P 1'
_cell_length_a   13.02846204
_cell_length_b   13.02845505
_cell_length_c   7.99184717
_cell_angle_alpha   89.99933193
_cell_angle_beta   90.00072680
_cell_angle_gamma   120.00116585
_symmetry_Int_Tables_number   1
_chemical_formula_structural   LiI
_chemical_formula_sum   'Li18 I18'
_cell_volume   1174.78602156
_cell_formula_units_Z   18
loop_
 _symmetry_equiv_pos_site_id
 _symmetry_equiv_pos_as_xyz
  1  'x, y, z'
loop_
 _atom_site_type_symbol
 _atom_site_label
 _atom_site_symmetry_multiplicity
 _atom_site_fract_x
 _atom_site_fract_y
 _atom_site_fract_z
 _atom_site_occupancy
  Li  Li0  1  0.50216032  0.12560449  0.99196027  1
  Li  Li1  1  0.50214618  0.37655894  0.49195637  1
  Li  Li2  1  0.20776701  0.16457505  0.15866777  1
  Li  Li3  1  0.95682447  0.79223909  0.15869653  1
  Li  Li4  1  0.54108086  0.70993816  0.32521232  1
  Li  Li5  1  0.87439872  0.37655119  0.99196706  1
  Li  Li6  1  0.95680881  0.16455219  0.65864413  1
  Li  Li7  1  0.20775904  0.04317457  0.65869444  1
  Li  Li8  1  0.62344067  0.49785497  0.99195725  1
  Li  Li9  1  0.62344943  0.12560411  0.49196401  1
  Li  Li10  1  0.83542373  0.79223287  0.65866579  1
  Li  Li11  1  0.83544795  0.04319101  0.15864497  1
  Li  Li12  1  0.29005287  0.83112358  0.32514299  1
  Li  Li13  1  0.29006197  0.45891844  0.82521113  1
  Li  Li14  1  0.87439573  0.49784031  0.49196210  1
  Li  Li15  1  0.54107453  0.83114497  0.82517113  1
  Li  Li16  1  0.16885652  0.45892679  0.32516983  1
  Li  Li17  1  0.16887401  0.70994813  0.82514500  1
  I  I18  1  0.49868549  0.62317399  -0.00649307  1
  I  I19  1  0.49868170  0.87552982  0.49347824  1
  I  I20  1  0.71013629  0.16796229  0.16021089  1
  I  I21  1  0.45784248  0.28987723  0.16021528  1
  I  I22  1  0.04350464  0.20893479  0.32685571  1
  I  I23  1  0.37683410  0.87552915  -0.00653331  1
  I  I24  1  0.45783814  0.16797442  0.66021479  1
  I  I25  1  0.71012204  0.54215748  0.66021571  1
  I  I26  1  0.12447177  0.50131959  -0.00652157  1
  I  I27  1  0.12447149  0.62316628  0.49346792  1
  I  I28  1  0.83203756  0.28986426  0.66021158  1
  I  I29  1  0.83202496  0.54216081  0.16021640  1
  I  I30  1  0.79107222  0.83457098  0.32686487  1
  I  I31  1  0.79106549  0.95649564  0.82685527  1
  I  I32  1  0.37682618  0.50131374  0.49350628  1
  I  I33  1  0.04348899  0.83455462  0.82686752  1
  I  I34  1  0.16544544  0.95650908  0.32686731  1
  I  I35  1  0.16542822  0.20892698  0.82686596  1
