# generated using pymatgen
data_LiBr
_symmetry_space_group_name_H-M   'P 1'
_cell_length_a   11.59743316
_cell_length_b   11.59744993
_cell_length_c   8.43070027
_cell_angle_alpha   90.00157754
_cell_angle_beta   89.99843586
_cell_angle_gamma   120.00694048
_symmetry_Int_Tables_number   1
_chemical_formula_structural   LiBr
_chemical_formula_sum   'Li18 Br18'
_cell_volume   981.94754241
_cell_formula_units_Z   18
loop_
 _symmetry_equiv_pos_site_id
 _symmetry_equiv_pos_as_xyz
  1  'x, y, z'
loop_
 _atom_site_type_symbol
 _atom_site_label
 _atom_site_symmetry_multiplicity
 _atom_site_fract_x
 _atom_site_fract_y
 _atom_site_fract_z
 _atom_site_occupancy
  Li  Li0  1  -0.01875174  0.26013084  0.10463366  1
  Li  Li1  1  -0.01873702  0.72110933  0.60461810  1
  Li  Li2  1  0.07317155  0.68536439  0.27131215  1
  Li  Li3  1  0.61218080  0.92681141  0.27133227  1
  Li  Li4  1  0.40665395  0.05443409  0.43792874  1
  Li  Li5  1  0.73991767  0.72117693  0.10461441  1
  Li  Li6  1  0.61220833  0.68536875  0.77132757  1
  Li  Li7  1  0.07319067  0.38781886  0.77133246  1
  Li  Li8  1  0.27888890  0.01873992  0.10461875  1
  Li  Li9  1  0.27882276  0.26008163  0.60461423  1
  Li  Li10  1  0.31463448  0.92682694  0.77131257  1
  Li  Li11  1  0.31462811  0.38778682  0.27132543  1
  Li  Li12  1  0.94556536  0.35221762  0.43793084  1
  Li  Li13  1  0.94556775  0.59334714  0.93792860  1
  Li  Li14  1  0.73986568  0.01874802  0.60463509  1
  Li  Li15  1  0.40661965  0.35223303  0.93789544  1
  Li  Li16  1  0.64776739  0.59338100  0.43789754  1
  Li  Li17  1  0.64778452  0.05444116  0.93792995  1
  Br  Br18  1  0.55473617  0.07659048  0.67534371  1
  Br  Br19  1  0.55472729  0.47817813  0.17529299  1
  Br  Br20  1  0.25697188  0.11206055  0.84206541  1
  Br  Br21  1  0.85511118  0.74301495  0.84205191  1
  Br  Br22  1  0.59027027  0.81158637  0.00877056  1
  Br  Br23  1  0.92344823  0.47815662  0.67534665  1
  Br  Br24  1  0.85508948  0.11207749  0.34207149  1
  Br  Br25  1  0.25698372  0.14488816  0.34205290  1
  Br  Br26  1  0.52182180  0.44527275  0.67529325  1
  Br  Br27  1  0.52184291  0.07655483  0.17534588  1
  Br  Br28  1  0.88793952  0.74302818  0.34206787  1
  Br  Br29  1  0.88792407  0.14490939  0.84206732  1
  Br  Br30  1  0.18843032  0.77866149  0.00875914  1
  Br  Br31  1  0.18841802  0.40973402  0.50877129  1
  Br  Br32  1  0.92340975  0.44526349  0.17534291  1
  Br  Br33  1  0.59021861  0.77865954  0.50879228  1
  Br  Br34  1  0.22133901  0.40977606  0.00879354  1
  Br  Br35  1  0.22133897  0.81156960  0.50875663  1
