# generated using pymatgen
data_LiBr
_symmetry_space_group_name_H-M   'P 1'
_cell_length_a   15.96816327
_cell_length_b   15.96817182
_cell_length_c   5.14547239
_cell_angle_alpha   89.97873020
_cell_angle_beta   90.02111851
_cell_angle_gamma   120.03946629
_symmetry_Int_Tables_number   1
_chemical_formula_structural   LiBr
_chemical_formula_sum   'Li18 Br18'
_cell_volume   1135.77722073
_cell_formula_units_Z   18
loop_
 _symmetry_equiv_pos_site_id
 _symmetry_equiv_pos_as_xyz
  1  'x, y, z'
loop_
 _atom_site_type_symbol
 _atom_site_label
 _atom_site_symmetry_multiplicity
 _atom_site_fract_x
 _atom_site_fract_y
 _atom_site_fract_z
 _atom_site_occupancy
  Li  Li0  1  0.91627655  0.08422691  0.25092859  1
  Li  Li1  1  0.08377331  0.16800813  0.74886843  1
  Li  Li2  1  0.16533335  0.58241272  0.41560938  1
  Li  Li3  1  0.49865934  0.24905758  0.08208750  1
  Li  Li4  1  0.58241192  0.16533323  0.58439095  1
  Li  Li5  1  0.91572475  0.83198860  0.25113413  1
  Li  Li6  1  0.50133491  0.75043762  -0.08208766  1
  Li  Li7  1  0.24905785  0.49866036  -0.08208761  1
  Li  Li8  1  0.16800669  0.08377191  0.25113343  1
  Li  Li9  1  0.83199149  0.91572509  0.74886539  1
  Li  Li10  1  0.24961112  0.75089225  -0.08228311  1
  Li  Li11  1  0.75043518  0.50133256  0.08208686  1
  Li  Li12  1  0.83466050  0.41711525  0.58439473  1
  Li  Li13  1  0.75089075  0.24960914  0.08228292  1
  Li  Li14  1  0.41753500  0.58293363  0.41580915  1
  Li  Li15  1  0.08422693  0.91627469  0.74907136  1
  Li  Li16  1  0.41711748  0.83466414  0.41560570  1
  Li  Li17  1  0.58293202  0.41753513  0.58418990  1
  Br  Br18  1  0.76543069  0.53050419  0.58142955  1
  Br  Br19  1  0.23464998  0.76508809  0.41827283  1
  Br  Br20  1  0.56819068  0.13618095  0.08512414  1
  Br  Br21  1  0.90151693  0.80284451  0.75182586  1
  Br  Br22  1  0.13618144  0.56819203  0.91487789  1
  Br  Br23  1  0.46949932  0.23483257  0.58143273  1
  Br  Br24  1  0.09840541  0.90131128  0.24847137  1
  Br  Br25  1  0.80284664  0.90151684  0.24817563  1
  Br  Br26  1  0.76508645  0.23464797  0.58172712  1
  Br  Br27  1  0.23483276  0.46950006  0.41856906  1
  Br  Br28  1  0.09877014  0.19716110  0.24817456  1
  Br  Br29  1  0.90131277  0.09840592  0.75152902  1
  Br  Br30  1  0.43172943  0.56797333  0.91516833  1
  Br  Br31  1  0.19716028  0.09876894  0.75182505  1
  Br  Br32  1  0.86382322  0.43210597  0.08512437  1
  Br  Br33  1  0.53050527  0.76543274  0.41856773  1
  Br  Br34  1  0.56797180  0.43172924  0.08483094  1
  Br  Br35  1  0.43210763  0.86382533  0.91487378  1
