# generated using pymatgen
data_LiBr
_symmetry_space_group_name_H-M   'P 1'
_cell_length_a   7.78067550
_cell_length_b   7.77602992
_cell_length_c   12.90365150
_cell_angle_alpha   89.99976915
_cell_angle_beta   90.00011961
_cell_angle_gamma   90.00219859
_symmetry_Int_Tables_number   1
_chemical_formula_structural   LiBr
_chemical_formula_sum   'Li16 Br16'
_cell_volume   780.70659967
_cell_formula_units_Z   16
loop_
 _symmetry_equiv_pos_site_id
 _symmetry_equiv_pos_as_xyz
  1  'x, y, z'
loop_
 _atom_site_type_symbol
 _atom_site_label
 _atom_site_symmetry_multiplicity
 _atom_site_fract_x
 _atom_site_fract_y
 _atom_site_fract_z
 _atom_site_occupancy
  Li  Li0  1  0.68578882  0.81412938  0.49994163  1
  Li  Li1  1  0.68589638  0.18575366  0.00012182  1
  Li  Li2  1  0.68511519  0.31458126  0.74973686  1
  Li  Li3  1  0.31420646  0.18587592  0.49993916  1
  Li  Li4  1  0.31410168  0.81424150  0.00012373  1
  Li  Li5  1  0.18544419  0.18507809  0.75020218  1
  Li  Li6  1  0.81455976  0.81492034  0.75020334  1
  Li  Li7  1  0.68544013  0.68507389  0.25020131  1
  Li  Li8  1  0.31455862  0.31492713  0.25020439  1
  Li  Li9  1  0.81420669  0.68586684  -0.00006085  1
  Li  Li10  1  0.81410505  0.31424194  0.50012275  1
  Li  Li11  1  0.18579956  0.31412664  -0.00005748  1
  Li  Li12  1  0.18589220  0.68576325  0.50012223  1
  Li  Li13  1  0.18510821  0.81458366  0.24973458  1
  Li  Li14  1  0.81488724  0.18541892  0.24973180  1
  Li  Li15  1  0.31489002  0.68541833  0.74973360  1
  Br  Br16  1  0.06227690  0.74996993  0.87476844  1
  Br  Br17  1  0.75002854  0.56227962  0.62523426  1
  Br  Br18  1  0.06215956  0.25027518  0.37508517  1
  Br  Br19  1  0.93772966  0.25003078  0.87476965  1
  Br  Br20  1  0.24996137  0.43772083  0.62523267  1
  Br  Br21  1  0.24972226  0.56216630  0.12491183  1
  Br  Br22  1  0.75026297  0.43783146  0.12491133  1
  Br  Br23  1  0.74973618  0.06216433  0.62491357  1
  Br  Br24  1  0.25027763  0.93783749  0.62491288  1
  Br  Br25  1  0.43772182  0.75002827  0.37477010  1
  Br  Br26  1  0.74997292  0.93771663  0.12523423  1
  Br  Br27  1  0.56227718  0.24996903  0.37477190  1
  Br  Br28  1  0.25003844  0.06227959  0.12523611  1
  Br  Br29  1  0.56216007  0.75027795  0.87508233  1
  Br  Br30  1  0.43784101  0.24972529  0.87507950  1
  Br  Br31  1  0.93783327  0.74972658  0.37508496  1
