# generated using pymatgen
data_NaI
_symmetry_space_group_name_H-M   'P 1'
_cell_length_a   10.82975824
_cell_length_b   10.82971684
_cell_length_c   6.47567945
_cell_angle_alpha   90.00028453
_cell_angle_beta   89.99964719
_cell_angle_gamma   89.99993653
_symmetry_Int_Tables_number   1
_chemical_formula_structural   NaI
_chemical_formula_sum   'Na8 I8'
_cell_volume   759.48850566
_cell_formula_units_Z   8
loop_
 _symmetry_equiv_pos_site_id
 _symmetry_equiv_pos_as_xyz
  1  'x, y, z'
loop_
 _atom_site_type_symbol
 _atom_site_label
 _atom_site_symmetry_multiplicity
 _atom_site_fract_x
 _atom_site_fract_y
 _atom_site_fract_z
 _atom_site_occupancy
  Na  Na0  1  0.14352725  0.85684475  0.24932877  1
  Na  Na1  1  0.35684642  0.35647157  0.25067827  1
  Na  Na2  1  0.85647248  0.14315488  0.24934148  1
  Na  Na3  1  0.14315422  0.14352857  0.75065142  1
  Na  Na4  1  0.85684646  0.85647145  0.75067833  1
  Na  Na5  1  0.35647260  0.64315493  0.74934156  1
  Na  Na6  1  0.64315433  0.64352858  0.25065150  1
  Na  Na7  1  0.64352693  0.35684449  0.74932880  1
  I  I8  1  0.84943160  0.14999393  0.74961046  1
  I  I9  1  0.64999417  0.65056760  0.75038829  1
  I  I10  1  0.15056836  0.85000594  0.74960167  1
  I  I11  1  0.85000568  0.84943271  0.25039955  1
  I  I12  1  0.14999407  0.15056785  0.25038822  1
  I  I13  1  0.65056824  0.35000585  0.24960171  1
  I  I14  1  0.35000543  0.34943284  0.75039947  1
  I  I15  1  0.34943175  0.64999406  0.24961051  1
