# generated using pymatgen
data_LiI
_symmetry_space_group_name_H-M   'P 1'
_cell_length_a   7.07255755
_cell_length_b   8.14200407
_cell_length_c   4.65219919
_cell_angle_alpha   90.00006654
_cell_angle_beta   89.99990948
_cell_angle_gamma   90.00000597
_symmetry_Int_Tables_number   1
_chemical_formula_structural   LiI
_chemical_formula_sum   'Li4 I4'
_cell_volume   267.89592447
_cell_formula_units_Z   4
loop_
 _symmetry_equiv_pos_site_id
 _symmetry_equiv_pos_as_xyz
  1  'x, y, z'
loop_
 _atom_site_type_symbol
 _atom_site_label
 _atom_site_symmetry_multiplicity
 _atom_site_fract_x
 _atom_site_fract_y
 _atom_site_fract_z
 _atom_site_occupancy
  Li  Li0  1  0.34414578  0.40701720  0.63917041  1
  Li  Li1  1  0.84414883  0.09298305  0.63917348  1
  Li  Li2  1  0.65585414  0.59298290  0.13917299  1
  Li  Li3  1  0.15585129  0.90701704  0.13917420  1
  I  I4  1  0.74080148  0.42166683  0.63890946  1
  I  I5  1  0.24080277  0.07833190  0.63891039  1
  I  I6  1  0.25919849  0.57833302  0.13890901  1
  I  I7  1  0.75919721  0.92166805  0.13891147  1
