# generated using pymatgen
data_LiBr
_symmetry_space_group_name_H-M   'P 1'
_cell_length_a   10.26293318
_cell_length_b   10.26292804
_cell_length_c   12.56757648
_cell_angle_alpha   90.01252830
_cell_angle_beta   89.98761002
_cell_angle_gamma   120.00435211
_symmetry_Int_Tables_number   1
_chemical_formula_structural   LiBr
_chemical_formula_sum   'Li18 Br18'
_cell_volume   1146.32006083
_cell_formula_units_Z   18
loop_
 _symmetry_equiv_pos_site_id
 _symmetry_equiv_pos_as_xyz
  1  'x, y, z'
loop_
 _atom_site_type_symbol
 _atom_site_label
 _atom_site_symmetry_multiplicity
 _atom_site_fract_x
 _atom_site_fract_y
 _atom_site_fract_z
 _atom_site_occupancy
  Li  Li0  1  0.00094265  0.25018603  0.87753653  1
  Li  Li1  1  0.00091130  0.75075150  0.37753276  1
  Li  Li2  1  0.08314681  0.66572433  0.04420333  1
  Li  Li3  1  0.58258946  -0.08314794  0.04420078  1
  Li  Li4  1  0.41648159  0.08407752  0.21086721  1
  Li  Li5  1  0.74981482  0.75074421  0.87753401  1
  Li  Li6  1  0.58258407  0.66575460  0.54419963  1
  Li  Li7  1  0.08314879  0.41741064  0.54420042  1
  Li  Li8  1  0.24925028  -0.00091123  0.87753389  1
  Li  Li9  1  0.24925573  0.25018474  0.37753409  1
  Li  Li10  1  0.33427657  -0.08314898  0.54420377  1
  Li  Li11  1  0.33424339  0.41741694  0.04419920  1
  Li  Li12  1  0.91591764  0.33242403  0.21086589  1
  Li  Li13  1  0.91592316  0.58351906  0.71086774  1
  Li  Li14  1  0.74981416  -0.00094139  0.37753621  1
  Li  Li15  1  0.41648031  0.33238871  0.71087028  1
  Li  Li16  1  0.66760866  0.58351799  0.21086996  1
  Li  Li17  1  0.66757802  0.08408360  0.71086618  1
  Br  Br18  1  0.33239410  0.41617909  0.54447088  1
  Br  Br19  1  0.33246805  0.91624154  0.04448003  1
  Br  Br20  1  0.91715391  0.33427323  0.71113697  1
  Br  Br21  1  0.41711482  0.08287544  0.71114369  1
  Br  Br22  1  0.25045569  0.24955081  0.87780985  1
  Br  Br23  1  0.58379031  0.91621761  0.54447700  1
  Br  Br24  1  0.41709028  0.33419922  0.21114506  1
  Br  Br25  1  0.91712277  0.58288565  0.21114326  1
  Br  Br26  1  0.08375764  0.66753216  0.54447891  1
  Br  Br27  1  0.08378188  0.41621082  0.04447495  1
  Br  Br28  1  0.66572740  0.08284772  0.21113625  1
  Br  Br29  1  0.66580064  0.58290726  0.71114640  1
  Br  Br30  1  0.75042450  0.00086533  0.87781263  1
  Br  Br31  1  0.75044813  0.74954412  0.37780904  1
  Br  Br32  1  0.58382020  0.66760641  0.04447006  1
  Br  Br33  1  0.25048767  0.00093933  0.37780474  1
  Br  Br34  1  -0.00094023  0.74951400  0.87780361  1
  Br  Br35  1  -0.00086516  0.24957590  0.37781238  1
