# generated using pymatgen
data_LiI
_symmetry_space_group_name_H-M   'P 1'
_cell_length_a   11.60410732
_cell_length_b   5.92520861
_cell_length_c   6.58347643
_cell_angle_alpha   89.99652333
_cell_angle_beta   90.00030793
_cell_angle_gamma   89.99906280
_symmetry_Int_Tables_number   1
_chemical_formula_structural   LiI
_chemical_formula_sum   'Li8 I8'
_cell_volume   452.65848552
_cell_formula_units_Z   8
loop_
 _symmetry_equiv_pos_site_id
 _symmetry_equiv_pos_as_xyz
  1  'x, y, z'
loop_
 _atom_site_type_symbol
 _atom_site_label
 _atom_site_symmetry_multiplicity
 _atom_site_fract_x
 _atom_site_fract_y
 _atom_site_fract_z
 _atom_site_occupancy
  Li  Li0  1  0.12404913  0.74962603  0.25868273  1
  Li  Li1  1  0.62405100  0.25035928  0.75867973  1
  Li  Li2  1  0.37595095  0.24963314  0.25867999  1
  Li  Li3  1  0.87594979  0.25036683  0.25868135  1
  Li  Li4  1  0.62404871  0.75036152  0.25868773  1
  Li  Li5  1  0.37595009  0.74962955  0.75867741  1
  Li  Li6  1  0.87595118  0.75036760  0.75868449  1
  Li  Li7  1  0.12404957  0.24962889  0.75868538  1
  I  I8  1  0.87489945  0.75054606  0.19050185  1
  I  I9  1  0.37489841  0.24946190  0.69050026  1
  I  I10  1  0.62510097  0.25054475  0.19050325  1
  I  I11  1  0.12510071  0.24946124  0.19050347  1
  I  I12  1  0.37489816  0.74946341  0.19049991  1
  I  I13  1  0.62510107  0.75054375  0.69050650  1
  I  I14  1  0.12510114  0.74946074  0.69050436  1
  I  I15  1  0.87489967  0.25054529  0.69050111  1
