# generated using pymatgen
data_LiBr
_symmetry_space_group_name_H-M   'P 1'
_cell_length_a   5.55831845
_cell_length_b   5.55833096
_cell_length_c   13.10440122
_cell_angle_alpha   89.99988679
_cell_angle_beta   90.00014479
_cell_angle_gamma   90.00428029
_symmetry_Int_Tables_number   1
_chemical_formula_structural   LiBr
_chemical_formula_sum   'Li8 Br8'
_cell_volume   404.86012797
_cell_formula_units_Z   8
loop_
 _symmetry_equiv_pos_site_id
 _symmetry_equiv_pos_as_xyz
  1  'x, y, z'
loop_
 _atom_site_type_symbol
 _atom_site_label
 _atom_site_symmetry_multiplicity
 _atom_site_fract_x
 _atom_site_fract_y
 _atom_site_fract_z
 _atom_site_occupancy
  Li  Li0  1  0.00056125  -0.00035007  0.37504598  1
  Li  Li1  1  -0.00034292  0.00056310  0.62495446  1
  Li  Li2  1  0.50056228  0.50034895  0.37494868  1
  Li  Li3  1  0.00034992  -0.00055986  0.12495499  1
  Li  Li4  1  0.49943681  0.49965267  0.87494990  1
  Li  Li5  1  -0.00055986  0.00035066  0.87504484  1
  Li  Li6  1  0.49964886  0.49944037  0.12505120  1
  Li  Li7  1  0.50034742  0.50056315  0.62505076  1
  Br  Br8  1  0.74969793  0.75021631  0.75005322  1
  Br  Br9  1  0.75021462  0.74969592  0.24994674  1
  Br  Br10  1  0.24969515  0.74978413  -0.00005315  1
  Br  Br11  1  0.24978485  0.25030302  0.74994682  1
  Br  Br12  1  0.75030245  0.25021554  0.49994582  1
  Br  Br13  1  0.25029972  0.24978125  0.25005289  1
  Br  Br14  1  0.25021878  0.75029865  0.50005357  1
  Br  Br15  1  0.74978275  0.24969619  0.00005329  1
