# generated using pymatgen
data_LiI
_symmetry_space_group_name_H-M   'P 1'
_cell_length_a   4.62417316
_cell_length_b   4.62007317
_cell_length_c   19.54906811
_cell_angle_alpha   90.00003925
_cell_angle_beta   89.99993536
_cell_angle_gamma   119.98755793
_symmetry_Int_Tables_number   1
_chemical_formula_structural   LiI
_chemical_formula_sum   'Li6 I6'
_cell_volume   361.73794725
_cell_formula_units_Z   6
loop_
 _symmetry_equiv_pos_site_id
 _symmetry_equiv_pos_as_xyz
  1  'x, y, z'
loop_
 _atom_site_type_symbol
 _atom_site_label
 _atom_site_symmetry_multiplicity
 _atom_site_fract_x
 _atom_site_fract_y
 _atom_site_fract_z
 _atom_site_occupancy
  Li  Li0  1  0.54741018  0.54839604  0.89641685  1
  Li  Li1  1  -0.00145291  0.54748398  0.06332190  1
  Li  Li2  1  0.00145534  0.45252088  0.56332197  1
  Li  Li3  1  0.54841409  0.00139152  0.72983055  1
  Li  Li4  1  0.45158244  -0.00139241  0.22982995  1
  Li  Li5  1  0.45258717  0.45159894  0.39641622  1
  I  I6  1  0.51930206  0.48398901  0.64647796  1
  I  I7  1  0.03548979  0.51881473  0.81311932  1
  I  I8  1  0.96450889  0.48118464  0.31311859  1
  I  I9  1  0.48256827  0.96491891  0.47978163  1
  I  I10  1  0.51743685  0.03508154  -0.02021785  1
  I  I11  1  0.48069785  0.51601222  0.14647766  1
