# generated using pymatgen
data_LiBr
_symmetry_space_group_name_H-M   'P 1'
_cell_length_a   14.17138847
_cell_length_b   14.17137673
_cell_length_c   4.97368539
_cell_angle_alpha   90.00015470
_cell_angle_beta   90.00013878
_cell_angle_gamma   89.99983239
_symmetry_Int_Tables_number   1
_chemical_formula_structural   LiBr
_chemical_formula_sum   'Li16 Br16'
_cell_volume   998.85571167
_cell_formula_units_Z   16
loop_
 _symmetry_equiv_pos_site_id
 _symmetry_equiv_pos_as_xyz
  1  'x, y, z'
loop_
 _atom_site_type_symbol
 _atom_site_label
 _atom_site_symmetry_multiplicity
 _atom_site_fract_x
 _atom_site_fract_y
 _atom_site_fract_z
 _atom_site_occupancy
  Li  Li0  1  0.07780390  0.42204371  0.85566368  1
  Li  Li1  1  0.92204619  0.07780411  0.10566284  1
  Li  Li2  1  0.92219592  0.42204398  0.35566143  1
  Li  Li3  1  0.92219524  0.57795591  0.85566339  1
  Li  Li4  1  0.07795362  0.92219647  0.10566259  1
  Li  Li5  1  0.57795567  0.57780443  0.10566441  1
  Li  Li6  1  0.42204439  0.42219465  0.10566044  1
  Li  Li7  1  0.07795544  0.07780356  0.60566498  1
  Li  Li8  1  0.92204391  0.92219712  0.60566108  1
  Li  Li9  1  0.42219531  0.07795707  0.35566247  1
  Li  Li10  1  0.57795635  0.42219408  0.60566290  1
  Li  Li11  1  0.57780569  0.92204351  0.35566250  1
  Li  Li12  1  0.42204358  0.57780527  0.60566310  1
  Li  Li13  1  0.42219570  0.92204525  0.85565987  1
  Li  Li14  1  0.57780495  0.07795516  0.85566395  1
  Li  Li15  1  0.07780350  0.57795562  0.35566538  1
  Br  Br16  1  0.60386315  0.60419054  0.60623923  1
  Br  Br17  1  0.10419100  0.60386357  0.85623932  1
  Br  Br18  1  0.39613657  0.60419111  0.10623791  1
  Br  Br19  1  0.39613680  0.39580807  0.60623571  1
  Br  Br20  1  0.89580856  0.39613664  0.85623585  1
  Br  Br21  1  0.39580977  0.10386383  0.85623700  1
  Br  Br22  1  0.60419194  0.89613655  0.85623713  1
  Br  Br23  1  0.89580820  0.60386371  0.35623696  1
  Br  Br24  1  0.10419067  0.39613618  0.35623741  1
  Br  Br25  1  0.89613610  0.89581075  0.10623544  1
  Br  Br26  1  0.39580912  0.89613670  0.35623527  1
  Br  Br27  1  0.10386342  0.10419110  0.10623887  1
  Br  Br28  1  0.60419224  0.10386284  0.35623880  1
  Br  Br29  1  0.89613651  0.10419279  0.60623662  1
  Br  Br30  1  0.10386381  0.89580818  0.60623605  1
  Br  Br31  1  0.60386277  0.39580753  0.10623741  1
