# generated using pymatgen
data_LiBr
_symmetry_space_group_name_H-M   'P 1'
_cell_length_a   6.61171043
_cell_length_b   6.61172010
_cell_length_c   3.95156835
_cell_angle_alpha   90.00142250
_cell_angle_beta   89.99828998
_cell_angle_gamma   120.00190114
_symmetry_Int_Tables_number   1
_chemical_formula_structural   LiBr
_chemical_formula_sum   'Li3 Br3'
_cell_volume   149.59603903
_cell_formula_units_Z   3
loop_
 _symmetry_equiv_pos_site_id
 _symmetry_equiv_pos_as_xyz
  1  'x, y, z'
loop_
 _atom_site_type_symbol
 _atom_site_label
 _atom_site_symmetry_multiplicity
 _atom_site_fract_x
 _atom_site_fract_y
 _atom_site_fract_z
 _atom_site_occupancy
  Li  Li0  1  0.94346488  0.66668745  0.10529479  1
  Li  Li1  1  0.33330242  0.27677246  0.43865846  1
  Li  Li2  1  0.72322510  0.05653244  0.77198723  1
  Br  Br3  1  0.69172255  0.66648748  0.60533291  1
  Br  Br4  1  0.33351474  0.02523527  0.93867307  1
  Br  Br5  1  -0.02522970  0.30828491  0.27200391  1
