# generated using pymatgen
data_LiBr
_symmetry_space_group_name_H-M   'P 1'
_cell_length_a   3.89277607
_cell_length_b   3.89277034
_cell_length_c   9.53325610
_cell_angle_alpha   89.99976640
_cell_angle_beta   90.00013231
_cell_angle_gamma   120.00033848
_symmetry_Int_Tables_number   1
_chemical_formula_structural   LiBr
_chemical_formula_sum   'Li3 Br3'
_cell_volume   125.10901805
_cell_formula_units_Z   3
loop_
 _symmetry_equiv_pos_site_id
 _symmetry_equiv_pos_as_xyz
  1  'x, y, z'
loop_
 _atom_site_type_symbol
 _atom_site_label
 _atom_site_symmetry_multiplicity
 _atom_site_fract_x
 _atom_site_fract_y
 _atom_site_fract_z
 _atom_site_occupancy
  Li  Li0  1  0.33416067  0.00062970  0.91031670  1
  Li  Li1  1  -0.00060344  0.33329611  0.57716726  1
  Li  Li2  1  0.66638099  0.66598814  0.24372366  1
  Br  Br3  1  0.66812074  0.66605254  0.74277243  1
  Br  Br4  1  0.33395046  0.00204800  0.40951668  1
  Br  Br5  1  -0.00200941  0.33198551  0.07609386  1
