# generated using pymatgen
data_LiI
_symmetry_space_group_name_H-M   'P 1'
_cell_length_a   11.00515920
_cell_length_b   11.00518667
_cell_length_c   4.33255448
_cell_angle_alpha   90.00058157
_cell_angle_beta   90.00013299
_cell_angle_gamma   90.00458924
_symmetry_Int_Tables_number   1
_chemical_formula_structural   LiI
_chemical_formula_sum   'Li8 I8'
_cell_volume   524.73227101
_cell_formula_units_Z   8
loop_
 _symmetry_equiv_pos_site_id
 _symmetry_equiv_pos_as_xyz
  1  'x, y, z'
loop_
 _atom_site_type_symbol
 _atom_site_label
 _atom_site_symmetry_multiplicity
 _atom_site_fract_x
 _atom_site_fract_y
 _atom_site_fract_z
 _atom_site_occupancy
  Li  Li0  1  0.16010558  -0.00007406  0.90617938  1
  Li  Li1  1  0.50006325  0.16011977  0.65613674  1
  Li  Li2  1  -0.00006410  0.33988020  0.15616348  1
  Li  Li3  1  0.00006095  0.66011748  0.15613112  1
  Li  Li4  1  0.49993859  0.83988281  0.65615442  1
  Li  Li5  1  0.66010280  0.49992800  0.40617483  1
  Li  Li6  1  0.33989492  0.50007526  0.40618994  1
  Li  Li7  1  0.83989723  0.00007195  0.90618195  1
  I  I8  1  0.81811934  0.49998005  0.93374961  1
  I  I9  1  -0.00004464  0.81812261  0.68368214  1
  I  I10  1  0.50004542  0.68187758  0.18368981  1
  I  I11  1  0.49995337  0.31812556  0.18369137  1
  I  I12  1  0.00004659  0.18187520  0.68370117  1
  I  I13  1  0.31812198  -0.00001810  0.43375653  1
  I  I14  1  0.68188057  0.00001866  0.43375195  1
  I  I15  1  0.18187814  0.50001703  0.93376180  1
