# generated using pymatgen
data_LiI
_symmetry_space_group_name_H-M   'P 1'
_cell_length_a   12.42481554
_cell_length_b   12.42836713
_cell_length_c   11.59554665
_cell_angle_alpha   90.00829307
_cell_angle_beta   89.97998558
_cell_angle_gamma   120.05433812
_symmetry_Int_Tables_number   1
_chemical_formula_structural   LiI
_chemical_formula_sum   'Li18 I18'
_cell_volume   1549.84333044
_cell_formula_units_Z   18
loop_
 _symmetry_equiv_pos_site_id
 _symmetry_equiv_pos_as_xyz
  1  'x, y, z'
loop_
 _atom_site_type_symbol
 _atom_site_label
 _atom_site_symmetry_multiplicity
 _atom_site_fract_x
 _atom_site_fract_y
 _atom_site_fract_z
 _atom_site_occupancy
  Li  Li0  1  0.56351930  0.87005942  0.76031460  1
  Li  Li1  1  0.36035521  0.89709910  0.57315208  1
  Li  Li2  1  0.43648126  0.12994179  0.23968621  1
  Li  Li3  1  0.30630928  0.43623279  0.76017946  1
  Li  Li4  1  0.53710165  0.63985873  0.57302943  1
  Li  Li5  1  0.87043810  0.30652735  0.23969672  1
  Li  Li6  1  0.79623162  0.02680913  0.09363802  1
  Li  Li7  1  0.12956363  0.69347427  0.76030334  1
  Li  Li8  1  0.69368841  0.56376295  0.23981284  1
  Li  Li9  1  0.20377049  -0.02680883  0.90636461  1
  Li  Li10  1  0.46289501  0.36013919  0.42696800  1
  Li  Li11  1  -0.02702246  0.76956883  0.09351857  1
  Li  Li12  1  0.02702551  0.23043389  0.90648977  1
  Li  Li13  1  0.63964469  0.10290179  0.42684775  1
  Li  Li14  1  0.23018480  0.20339218  0.09364447  1
  Li  Li15  1  0.76981412  0.79660671  0.90635542  1
  Li  Li16  1  0.10314881  0.46327213  0.57302054  1
  Li  Li17  1  0.89685022  0.53672690  0.42698234  1
  I  I18  1  0.89825864  0.53712244  0.18732421  1
  I  I19  1  0.02781009  0.23165476  0.14604994  1
  I  I20  1  0.10174350  0.46287856  0.81267754  1
  I  I21  1  0.63885627  0.10167706  0.18728182  1
  I  I22  1  0.20375521  0.97220534  0.14608924  1
  I  I23  1  0.53708765  0.63887074  0.81275532  1
  I  I24  1  0.12957840  0.69446155  0.52057792  1
  I  I25  1  0.46291023  0.36112721  0.18724305  1
  I  I26  1  0.36114489  0.89832582  0.81271715  1
  I  I27  1  0.87042094  0.30553795  0.47942344  1
  I  I28  1  0.79624671  0.02779812  0.85390976  1
  I  I29  1  0.30552521  0.43501067  0.52061808  1
  I  I30  1  0.69447249  0.56498895  0.47937615  1
  I  I31  1  0.97219078  0.76834266  0.85395428  1
  I  I32  1  0.56492202  0.87045598  0.52065567  1
  I  I33  1  0.43507697  0.12954460  0.47934491  1
  I  I34  1  0.76841071  0.79621097  0.14601012  1
  I  I35  1  0.23158967  0.20378829  0.85398724  1
