# generated using pymatgen
data_LiI
_symmetry_space_group_name_H-M   'P 1'
_cell_length_a   13.03637816
_cell_length_b   13.03637191
_cell_length_c   7.97611742
_cell_angle_alpha   89.99702295
_cell_angle_beta   90.00301006
_cell_angle_gamma   120.00153787
_symmetry_Int_Tables_number   1
_chemical_formula_structural   LiI
_chemical_formula_sum   'Li18 I18'
_cell_volume   1173.89467071
_cell_formula_units_Z   18
loop_
 _symmetry_equiv_pos_site_id
 _symmetry_equiv_pos_as_xyz
  1  'x, y, z'
loop_
 _atom_site_type_symbol
 _atom_site_label
 _atom_site_symmetry_multiplicity
 _atom_site_fract_x
 _atom_site_fract_y
 _atom_site_fract_z
 _atom_site_occupancy
  Li  Li0  1  0.62433336  0.12485984  0.29491181  1
  Li  Li1  1  0.62430424  0.49947499  0.79498244  1
  Li  Li2  1  0.20873835  0.04242438  0.46124068  1
  Li  Li3  1  0.83372932  0.79133936  0.46133385  1
  Li  Li4  1  0.54185793  0.83271305  0.62813112  1
  Li  Li5  1  0.87507783  0.49948769  0.29502887  1
  Li  Li6  1  0.83378684  0.04251190  0.96127509  1
  Li  Li7  1  0.20866073  0.16627371  0.96133452  1
  Li  Li8  1  0.50052610  0.37569564  0.29498129  1
  Li  Li9  1  0.50051095  0.12492130  0.79503015  1
  Li  Li10  1  -0.04242212  0.79126193  0.96124327  1
  Li  Li11  1  -0.04251441  0.16621042  0.46127565  1
  Li  Li12  1  0.16732178  0.70920685  0.62802763  1
  Li  Li13  1  0.16728594  0.45814077  0.12813190  1
  Li  Li14  1  0.87514142  0.37566693  0.79491275  1
  Li  Li15  1  0.54194364  0.70921598  0.12802433  1
  Li  Li16  1  0.29078458  0.45805726  0.62802370  1
  Li  Li17  1  0.29079196  0.83267900  0.12802927  1
  I  I18  1  0.70853686  0.16693703  0.96149358  1
  I  I19  1  0.70850417  0.54156877  0.46166757  1
  I  I20  1  0.16645213  -0.04189769  0.12794085  1
  I  I21  1  0.79166866  0.83353735  0.12805533  1
  I  I22  1  0.49975061  0.87507454  0.29480407  1
  I  I23  1  0.83311032  0.54161399  0.96162231  1
  I  I24  1  0.79168351  -0.04192014  0.62812363  1
  I  I25  1  0.16646408  0.20833256  0.62805331  1
  I  I26  1  0.45843064  0.29149434  0.96166863  1
  I  I27  1  0.45838610  0.16688866  0.46162057  1
  I  I28  1  0.04189845  0.83354827  0.62794108  1
  I  I29  1  0.04191921  0.20831480  0.12812360  1
  I  I30  1  0.12495203  0.62464265  0.29481579  1
  I  I31  1  0.12492463  0.50024844  0.79480320  1
  I  I32  1  0.83306480  0.29146419  0.46149221  1
  I  I33  1  0.49967053  0.62463233  0.79471547  1
  I  I34  1  0.37536741  0.50033083  0.29471575  1
  I  I35  1  0.37535740  0.87504810  0.79481536  1
