# generated using pymatgen
data_KI
_symmetry_space_group_name_H-M   'P 1'
_cell_length_a   6.09290114
_cell_length_b   7.12438019
_cell_length_c   10.56607136
_cell_angle_alpha   90.00002434
_cell_angle_beta   89.99999050
_cell_angle_gamma   90.00000139
_symmetry_Int_Tables_number   1
_chemical_formula_structural   KI
_chemical_formula_sum   'K4 I4'
_cell_volume   458.65354856
_cell_formula_units_Z   4
loop_
 _symmetry_equiv_pos_site_id
 _symmetry_equiv_pos_as_xyz
  1  'x, y, z'
loop_
 _atom_site_type_symbol
 _atom_site_label
 _atom_site_symmetry_multiplicity
 _atom_site_fract_x
 _atom_site_fract_y
 _atom_site_fract_z
 _atom_site_occupancy
  K  K0  1  0.48337209  0.50072139  0.41699983  1
  K  K1  1  0.51662840  0.00072147  0.08300142  1
  K  K2  1  0.01662810  0.49927856  0.91699871  1
  K  K3  1  0.98337209  -0.00072150  0.58299968  1
  I  I4  1  0.48259363  0.00104531  0.41570048  1
  I  I5  1  0.51740620  0.50104538  0.08430050  1
  I  I6  1  0.01740605  -0.00104526  0.91569956  1
  I  I7  1  0.98259345  0.49895465  0.58429982  1
