# generated using pymatgen
data_LiBr
_symmetry_space_group_name_H-M   'P 1'
_cell_length_a   11.60214343
_cell_length_b   11.60213952
_cell_length_c   7.64771826
_cell_angle_alpha   90.00106514
_cell_angle_beta   89.99897846
_cell_angle_gamma   120.00229557
_symmetry_Int_Tables_number   1
_chemical_formula_structural   LiBr
_chemical_formula_sum   'Li18 Br18'
_cell_volume   891.51525506
_cell_formula_units_Z   18
loop_
 _symmetry_equiv_pos_site_id
 _symmetry_equiv_pos_as_xyz
  1  'x, y, z'
loop_
 _atom_site_type_symbol
 _atom_site_label
 _atom_site_symmetry_multiplicity
 _atom_site_fract_x
 _atom_site_fract_y
 _atom_site_fract_z
 _atom_site_occupancy
  Li  Li0  1  0.07499119  0.53512908  0.32710219  1
  Li  Li1  1  0.07500258  0.53985829  0.82709886  1
  Li  Li2  1  0.79821110  0.59164529  0.49405762  1
  Li  Li3  1  0.79343482  0.20179604  0.49405643  1
  Li  Li4  1  0.13150773  0.87325027  0.65970610  1
  Li  Li5  1  0.46486165  0.53986266  0.32709929  1
  Li  Li6  1  0.79344176  0.59163894  -0.00594394  1
  Li  Li7  1  0.79820393  0.20656506  -0.00594363  1
  Li  Li8  1  0.46014348  0.92499865  0.32710041  1
  Li  Li9  1  0.46013651  0.53513768  0.82709876  1
  Li  Li10  1  0.40835489  0.20178938  -0.00594043  1
  Li  Li11  1  0.40836037  0.20655656  0.49405860  1
  Li  Li12  1  0.12675199  0.25825374  0.65970248  1
  Li  Li13  1  0.12675084  0.86849300  0.15970621  1
  Li  Li14  1  0.46487235  0.92500685  0.82709914  1
  Li  Li15  1  0.13151650  0.25826477  0.15970698  1
  Li  Li16  1  0.74173676  0.86848260  0.65970370  1
  Li  Li17  1  0.74174513  0.87324588  0.15970529  1
  Br  Br18  1  0.90538215  0.45042177  0.56909912  1
  Br  Br19  1  0.90538569  0.45496504  0.06909530  1
  Br  Br20  1  0.88291048  0.76128326  0.73585005  1
  Br  Br21  1  0.87836639  0.11708906  0.73583861  1
  Br  Br22  1  0.21619648  0.78830537  0.90201645  1
  Br  Br23  1  0.54957642  0.45496626  0.56908561  1
  Br  Br24  1  0.87836926  0.76128164  0.23584798  1
  Br  Br25  1  0.88291073  0.12163338  0.23583905  1
  Br  Br26  1  0.54503513  0.09461436  0.56909605  1
  Br  Br27  1  0.54503385  0.45042382  0.06908595  1
  Br  Br28  1  0.23871696  0.11708986  0.23585091  1
  Br  Br29  1  0.23871851  0.12163114  0.73584900  1
  Br  Br30  1  0.21169614  0.42789393  0.90202594  1
  Br  Br31  1  0.21169494  0.78380396  0.40201689  1
  Br  Br32  1  0.54957818  0.09461739  0.06909901  1
  Br  Br33  1  0.21619611  0.42789750  0.40202976  1
  Br  Br34  1  0.57210321  0.78380375  0.90202885  1
  Br  Br35  1  0.57210579  0.78830379  0.40202609  1
