# generated using pymatgen
data_LiBr
_symmetry_space_group_name_H-M   'P 1'
_cell_length_a   10.28899769
_cell_length_b   10.28903469
_cell_length_c   12.50607041
_cell_angle_alpha   90.01099548
_cell_angle_beta   89.98934637
_cell_angle_gamma   120.00171058
_symmetry_Int_Tables_number   1
_chemical_formula_structural   LiBr
_chemical_formula_sum   'Li18 Br18'
_cell_volume   1146.54658600
_cell_formula_units_Z   18
loop_
 _symmetry_equiv_pos_site_id
 _symmetry_equiv_pos_as_xyz
  1  'x, y, z'
loop_
 _atom_site_type_symbol
 _atom_site_label
 _atom_site_symmetry_multiplicity
 _atom_site_fract_x
 _atom_site_fract_y
 _atom_site_fract_z
 _atom_site_occupancy
  Li  Li0  1  0.24978341  0.00037352  0.09509586  1
  Li  Li1  1  0.24977029  0.24941592  0.59509649  1
  Li  Li2  1  0.33297465  0.41688516  0.26194107  1
  Li  Li3  1  0.08388998  0.66698703  0.26195385  1
  Li  Li4  1  0.66632869  0.58285462  0.42853590  1
  Li  Li5  1  -0.00033425  0.24943067  0.09510268  1
  Li  Li6  1  0.08390510  0.41689337  0.76194324  1
  Li  Li7  1  0.33301414  0.91610899  0.76195393  1
  Li  Li8  1  0.75058429  0.75022903  0.09509609  1
  Li  Li9  1  0.75056910  0.00033459  0.59510298  1
  Li  Li10  1  0.58311558  0.66702496  0.76194191  1
  Li  Li11  1  0.58310547  0.91609533  0.26194409  1
  Li  Li12  1  0.41716030  0.08346637  0.42852922  1
  Li  Li13  1  0.41714527  0.33367168  0.92853538  1
  Li  Li14  1  -0.00037362  0.75021700  0.59509498  1
  Li  Li15  1  0.66628493  0.08344857  0.92852854  1
  Li  Li16  1  0.91655135  0.33371402  0.42852840  1
  Li  Li17  1  0.91653321  0.58284050  0.92852942  1
  Br  Br18  1  0.66701420  0.08440524  0.42845170  1
  Br  Br19  1  0.66709567  0.58265084  0.92846182  1
  Br  Br20  1  0.24899593  -0.00029485  0.59513921  1
  Br  Br21  1  0.75070866  0.75104598  0.59514387  1
  Br  Br22  1  0.58221079  0.91600756  0.76181381  1
  Br  Br23  1  0.91556081  0.58261930  0.42846302  1
  Br  Br24  1  0.75067286  -0.00037561  0.09514719  1
  Br  Br25  1  0.24895253  0.24929305  0.09514512  1
  Br  Br26  1  0.41734913  0.33290500  0.42846103  1
  Br  Br27  1  0.41738171  0.08443734  0.92846164  1
  Br  Br28  1  0.00029417  0.75100435  0.09513859  1
  Br  Br29  1  0.00037702  0.24932742  0.59514758  1
  Br  Br30  1  0.08395993  0.66617114  0.76181487  1
  Br  Br31  1  0.08399393  0.41778843  0.26181174  1
  Br  Br32  1  0.91559405  0.33298463  0.92845199  1
  Br  Br33  1  0.58225422  0.66625242  0.26180533  1
  Br  Br34  1  0.33374689  0.41774562  0.76180439  1
  Br  Br35  1  0.33382963  0.91604083  0.26181574  1
