# generated using pymatgen
data_NaI
_symmetry_space_group_name_H-M   'P 1'
_cell_length_a   15.08767829
_cell_length_b   8.02192543
_cell_length_c   7.97421231
_cell_angle_alpha   90.00001189
_cell_angle_beta   89.99978777
_cell_angle_gamma   89.99999430
_symmetry_Int_Tables_number   1
_chemical_formula_structural   NaI
_chemical_formula_sum   'Na8 I8'
_cell_volume   965.13669917
_cell_formula_units_Z   8
loop_
 _symmetry_equiv_pos_site_id
 _symmetry_equiv_pos_as_xyz
  1  'x, y, z'
loop_
 _atom_site_type_symbol
 _atom_site_label
 _atom_site_symmetry_multiplicity
 _atom_site_fract_x
 _atom_site_fract_y
 _atom_site_fract_z
 _atom_site_occupancy
  Na  Na0  1  0.25006669  -0.00038178  0.28140234  1
  Na  Na1  1  0.24993322  0.49961838  0.28140559  1
  Na  Na2  1  0.75006676  0.50038173  0.78140247  1
  Na  Na3  1  0.74993328  -0.00038158  0.28140567  1
  Na  Na4  1  0.25006680  0.00038173  0.78140237  1
  Na  Na5  1  0.75006674  0.49961819  0.28140238  1
  Na  Na6  1  0.74993316  0.00038158  0.78140569  1
  Na  Na7  1  0.24993318  0.50038154  0.78140564  1
  I  I8  1  0.83566904  0.24970515  0.03217058  1
  I  I9  1  0.66433100  0.74970535  0.03217150  1
  I  I10  1  0.33566898  0.25029487  0.53217059  1
  I  I11  1  0.16433101  0.24970531  0.03217136  1
  I  I12  1  0.83566900  0.75029486  0.53217072  1
  I  I13  1  0.33566904  0.74970511  0.03217061  1
  I  I14  1  0.16433104  0.75029478  0.53217149  1
  I  I15  1  0.66433106  0.25029478  0.53217146  1
