# generated using pymatgen
data_KI
_symmetry_space_group_name_H-M   'P 1'
_cell_length_a   8.70569313
_cell_length_b   8.70018320
_cell_length_c   8.69420829
_cell_angle_alpha   90.00004127
_cell_angle_beta   90.00000060
_cell_angle_gamma   90.00000009
_symmetry_Int_Tables_number   1
_chemical_formula_structural   KI
_chemical_formula_sum   'K8 I8'
_cell_volume   658.50911802
_cell_formula_units_Z   8
loop_
 _symmetry_equiv_pos_site_id
 _symmetry_equiv_pos_as_xyz
  1  'x, y, z'
loop_
 _atom_site_type_symbol
 _atom_site_label
 _atom_site_symmetry_multiplicity
 _atom_site_fract_x
 _atom_site_fract_y
 _atom_site_fract_z
 _atom_site_occupancy
  K  K0  1  0.75001408  0.49844553  0.41193101  1
  K  K1  1  0.25001447  0.00155447  0.41193116  1
  K  K2  1  0.24998590  0.49844553  0.91193125  1
  K  K3  1  0.24998550  0.50155447  0.41193140  1
  K  K4  1  0.75001447  0.50155447  0.91193116  1
  K  K5  1  0.74998590  -0.00155447  0.41193124  1
  K  K6  1  0.74998555  0.00155447  0.91193140  1
  K  K7  1  0.25001412  -0.00155447  0.91193101  1
  I  I8  1  0.51170172  0.75054117  0.16260564  1
  I  I9  1  0.01170172  0.74945886  0.16260552  1
  I  I10  1  0.48829828  0.75054113  0.66260564  1
  I  I11  1  0.48829828  0.24945887  0.16260556  1
  I  I12  1  0.51170172  0.24945884  0.66260555  1
  I  I13  1  0.98829828  0.25054115  0.16260567  1
  I  I14  1  0.98829829  0.74945884  0.66260553  1
  I  I15  1  0.01170172  0.25054114  0.66260567  1
