# generated using pymatgen
data_LiI
_symmetry_space_group_name_H-M   'P 1'
_cell_length_a   12.49846480
_cell_length_b   12.49852919
_cell_length_c   8.98222777
_cell_angle_alpha   90.00114408
_cell_angle_beta   89.99879754
_cell_angle_gamma   119.99119860
_symmetry_Int_Tables_number   1
_chemical_formula_structural   LiI
_chemical_formula_sum   'Li18 I18'
_cell_volume   1215.25883095
_cell_formula_units_Z   18
loop_
 _symmetry_equiv_pos_site_id
 _symmetry_equiv_pos_as_xyz
  1  'x, y, z'
loop_
 _atom_site_type_symbol
 _atom_site_label
 _atom_site_symmetry_multiplicity
 _atom_site_fract_x
 _atom_site_fract_y
 _atom_site_fract_z
 _atom_site_occupancy
  Li  Li0  1  0.06420587  0.33655386  0.35655502  1
  Li  Li1  1  0.06418543  0.72764878  0.85656115  1
  Li  Li2  1  -0.00307238  0.60254703  0.52321234  1
  Li  Li3  1  0.60562631  0.00307039  0.52321790  1
  Li  Li4  1  0.33028586  0.06119979  0.68988513  1
  Li  Li5  1  0.66347969  0.72766462  0.35656879  1
  Li  Li6  1  0.60561404  0.60254119  0.02320884  1
  Li  Li7  1  -0.00307098  0.39437357  0.02321747  1
  Li  Li8  1  0.27235209  -0.06418784  0.35656093  1
  Li  Li9  1  0.27233499  0.33651998  0.85657000  1
  Li  Li10  1  0.39745278  0.00307360  0.02321501  1
  Li  Li11  1  0.39745871  0.39438584  0.52320952  1
  Li  Li12  1  -0.06119747  0.26902228  0.68984495  1
  Li  Li13  1  -0.06120063  0.66971436  0.18988652  1
  Li  Li14  1  0.66344524  -0.06420677  0.85655402  1
  Li  Li15  1  0.33021704  0.26901547  0.18987762  1
  Li  Li16  1  0.73098379  0.66978259  0.68987841  1
  Li  Li17  1  0.73097767  0.06119785  0.18984474  1
  I  I18  1  0.47340970  0.91074297  0.25857231  1
  I  I19  1  0.47343603  0.56268643  0.75859488  1
  I  I20  1  0.42252154  0.19331178  0.42541726  1
  I  I21  1  0.77077937  0.57752083  0.42543071  1
  I  I22  1  0.75582999  0.89596292  0.59202117  1
  I  I23  1  0.08924828  0.56267369  0.25859255  1
  I  I24  1  0.77075145  0.19325073  0.92543098  1
  I  I25  1  0.42247784  0.22922124  0.92543153  1
  I  I26  1  0.43731368  0.52656550  0.25859515  1
  I  I27  1  0.43732714  0.91075193  0.75859242  1
  I  I28  1  0.80668701  0.57747838  0.92541762  1
  I  I29  1  0.80675088  0.22924938  0.42543164  1
  I  I30  1  0.10403442  0.85987291  0.59205463  1
  I  I31  1  0.10403708  0.24416956  0.09202124  1
  I  I32  1  0.08925775  0.52659172  0.75857256  1
  I  I33  1  0.75584431  0.85991213  0.09200045  1
  I  I34  1  0.14008775  0.24415536  0.59200153  1
  I  I35  1  0.14012772  0.89596600  0.09205544  1
