# generated using pymatgen
data_LiI
_symmetry_space_group_name_H-M   'P 1'
_cell_length_a   7.71464826
_cell_length_b   7.71444713
_cell_length_c   9.47820861
_cell_angle_alpha   89.99992647
_cell_angle_beta   89.99988483
_cell_angle_gamma   120.00873324
_symmetry_Int_Tables_number   1
_chemical_formula_structural   LiI
_chemical_formula_sum   'Li6 I6'
_cell_volume   488.47192288
_cell_formula_units_Z   6
loop_
 _symmetry_equiv_pos_site_id
 _symmetry_equiv_pos_as_xyz
  1  'x, y, z'
loop_
 _atom_site_type_symbol
 _atom_site_label
 _atom_site_symmetry_multiplicity
 _atom_site_fract_x
 _atom_site_fract_y
 _atom_site_fract_z
 _atom_site_occupancy
  Li  Li0  1  0.60607086  0.21513622  0.79590745  1
  Li  Li1  1  0.39090521  0.60605083  0.62917827  1
  Li  Li2  1  0.60909261  0.39394778  0.12917826  1
  Li  Li3  1  0.21518536  0.60911397  0.96252132  1
  Li  Li4  1  0.78481545  0.39088676  0.46252010  1
  Li  Li5  1  0.39393087  0.78486317  0.29590731  1
  I  I6  1  -0.00175252  0.50115908  0.71317438  1
  I  I7  1  0.49709037  -0.00171466  0.54651072  1
  I  I8  1  0.50291354  0.00171435  0.04651134  1
  I  I9  1  0.50117355  0.50288061  0.87984433  1
  I  I10  1  0.49882170  0.49711469  0.37984385  1
  I  I11  1  0.00175300  0.49884720  0.21317436  1
