# generated using pymatgen
data_LiBr
_symmetry_space_group_name_H-M   'P 1'
_cell_length_a   4.27888057
_cell_length_b   4.27908499
_cell_length_c   9.36350100
_cell_angle_alpha   89.98530608
_cell_angle_beta   90.00524924
_cell_angle_gamma   119.99532706
_symmetry_Int_Tables_number   1
_chemical_formula_structural   LiBr
_chemical_formula_sum   'Li3 Br3'
_cell_volume   148.48083565
_cell_formula_units_Z   3
loop_
 _symmetry_equiv_pos_site_id
 _symmetry_equiv_pos_as_xyz
  1  'x, y, z'
loop_
 _atom_site_type_symbol
 _atom_site_label
 _atom_site_symmetry_multiplicity
 _atom_site_fract_x
 _atom_site_fract_y
 _atom_site_fract_z
 _atom_site_occupancy
  Li  Li0  1  0.66786640  0.67034746  0.66884824  1
  Li  Li1  1  0.32973619  0.99750736  0.33630762  1
  Li  Li2  1  0.00238929  0.33213254  0.00247945  1
  Br  Br3  1  0.66303764  0.66426602  0.40160172  1
  Br  Br4  1  0.33559815  -0.00133033  0.06843023  1
  Br  Br5  1  0.00137233  0.33707695  0.73497000  1
