# generated using pymatgen
data_LiBr
_symmetry_space_group_name_H-M   'P 1'
_cell_length_a   11.53899374
_cell_length_b   11.53905526
_cell_length_c   7.91588889
_cell_angle_alpha   90.00769833
_cell_angle_beta   89.99316207
_cell_angle_gamma   119.99284195
_symmetry_Int_Tables_number   1
_chemical_formula_structural   LiBr
_chemical_formula_sum   'Li18 Br18'
_cell_volume   912.85085856
_cell_formula_units_Z   18
loop_
 _symmetry_equiv_pos_site_id
 _symmetry_equiv_pos_as_xyz
  1  'x, y, z'
loop_
 _atom_site_type_symbol
 _atom_site_label
 _atom_site_symmetry_multiplicity
 _atom_site_fract_x
 _atom_site_fract_y
 _atom_site_fract_z
 _atom_site_occupancy
  Li  Li0  1  0.92640163  0.46274952  0.72298283  1
  Li  Li1  1  0.92642433  0.46368044  0.22296828  1
  Li  Li2  1  0.87058497  0.74025799  0.88963442  1
  Li  Li3  1  0.86963378  0.12938566  0.88966291  1
  Li  Li4  1  0.20394730  0.79702870  0.05632410  1
  Li  Li5  1  0.53729404  0.46369342  0.72296813  1
  Li  Li6  1  0.86965839  0.74024221  0.38961205  1
  Li  Li7  1  0.87061554  0.13036626  0.38966101  1
  Li  Li8  1  0.53632162  0.07358274  0.72295176  1
  Li  Li9  1  0.53630919  0.46271478  0.22297203  1
  Li  Li10  1  0.25974001  0.12941159  0.38961925  1
  Li  Li11  1  0.25974712  0.13032575  0.88960698  1
  Li  Li12  1  0.20299088  0.40691644  0.05627825  1
  Li  Li13  1  0.20297363  0.79605825  0.55632538  1
  Li  Li14  1  0.53725439  0.07360165  0.22296967  1
  Li  Li15  1  0.20392420  0.40693933  0.55630671  1
  Li  Li16  1  0.59305258  0.79606996  0.05628934  1
  Li  Li17  1  0.59307003  0.79699863  0.55627840  1
  Br  Br18  1  0.78768029  0.57425970  0.65039837  1
  Br  Br19  1  0.78770731  0.21342671  0.15036934  1
  Br  Br20  1  0.75907968  0.87899129  0.81704127  1
  Br  Br21  1  0.11990069  0.24092889  0.81710663  1
  Br  Br22  1  0.09240519  0.54675430  0.98377044  1
  Br  Br23  1  0.42571435  0.21341881  0.65041985  1
  Br  Br24  1  0.11990692  0.87895785  0.31702872  1
  Br  Br25  1  0.75907035  0.88009400  0.31708290  1
  Br  Br26  1  0.78658184  0.21230017  0.65036546  1
  Br  Br27  1  0.78657004  0.57427242  0.15042183  1
  Br  Br28  1  0.12102327  0.24092868  0.31706217  1
  Br  Br29  1  0.12104750  0.88010380  0.81702585  1
  Br  Br30  1  0.45325415  0.54564521  0.98367806  1
  Br  Br31  1  0.45324029  0.90759682  0.48375630  1
  Br  Br32  1  0.42573824  0.21231034  0.15038256  1
  Br  Br33  1  0.09241588  0.54563983  0.48372839  1
  Br  Br34  1  0.45436483  0.90759800  0.98372825  1
  Br  Br35  1  0.45435558  0.54674985  0.48367180  1
