# generated using pymatgen
data_LiI
_symmetry_space_group_name_H-M   'P 1'
_cell_length_a   4.79631541
_cell_length_b   13.10523232
_cell_length_c   4.63039744
_cell_angle_alpha   90.00006471
_cell_angle_beta   89.99999881
_cell_angle_gamma   89.99974904
_symmetry_Int_Tables_number   1
_chemical_formula_structural   LiI
_chemical_formula_sum   'Li4 I4'
_cell_volume   291.05209394
_cell_formula_units_Z   4
loop_
 _symmetry_equiv_pos_site_id
 _symmetry_equiv_pos_as_xyz
  1  'x, y, z'
loop_
 _atom_site_type_symbol
 _atom_site_label
 _atom_site_symmetry_multiplicity
 _atom_site_fract_x
 _atom_site_fract_y
 _atom_site_fract_z
 _atom_site_occupancy
  Li  Li0  1  0.00034462  -0.00450780  0.22235365  1
  Li  Li1  1  -0.00034791  0.49549257  0.27764526  1
  Li  Li2  1  0.49965490  0.00450777  0.72235379  1
  Li  Li3  1  0.50034844  0.50450746  0.77764626  1
  I  I4  1  -0.00034972  0.11196579  0.72285074  1
  I  I5  1  0.00034246  0.61196570  0.77714986  1
  I  I6  1  0.50034924  0.88803421  0.22285080  1
  I  I7  1  0.49965796  0.38803430  0.27714965  1
