# generated using pymatgen
data_LiCl
_symmetry_space_group_name_H-M   'P 1'
_cell_length_a   3.65046412
_cell_length_b   3.65036040
_cell_length_c   8.77894706
_cell_angle_alpha   90.00481670
_cell_angle_beta   89.99388648
_cell_angle_gamma   119.99681398
_symmetry_Int_Tables_number   1
_chemical_formula_structural   LiCl
_chemical_formula_sum   'Li3 Cl3'
_cell_volume   101.31431910
_cell_formula_units_Z   3
loop_
 _symmetry_equiv_pos_site_id
 _symmetry_equiv_pos_as_xyz
  1  'x, y, z'
loop_
 _atom_site_type_symbol
 _atom_site_label
 _atom_site_symmetry_multiplicity
 _atom_site_fract_x
 _atom_site_fract_y
 _atom_site_fract_z
 _atom_site_occupancy
  Li  Li0  1  0.66720773  -0.00006354  0.50833904  1
  Li  Li1  1  0.00019540  0.66727658  0.84145907  1
  Li  Li2  1  0.33250135  0.33268975  0.17517959  1
  Cl  Cl3  1  0.66560823  -0.00090524  0.00891692  1
  Cl  Cl4  1  0.00094499  0.66652461  0.34225566  1
  Cl  Cl5  1  0.33354230  0.33447785  0.67541664  1
