# generated using pymatgen
data_LiI
_symmetry_space_group_name_H-M   'P 1'
_cell_length_a   16.15185034
_cell_length_b   16.15036559
_cell_length_c   7.32121342
_cell_angle_alpha   90.01837453
_cell_angle_beta   90.00267018
_cell_angle_gamma   120.02887269
_symmetry_Int_Tables_number   1
_chemical_formula_structural   LiI
_chemical_formula_sum   'Li18 I18'
_cell_volume   1653.45308373
_cell_formula_units_Z   18
loop_
 _symmetry_equiv_pos_site_id
 _symmetry_equiv_pos_as_xyz
  1  'x, y, z'
loop_
 _atom_site_type_symbol
 _atom_site_label
 _atom_site_symmetry_multiplicity
 _atom_site_fract_x
 _atom_site_fract_y
 _atom_site_fract_z
 _atom_site_occupancy
  Li  Li0  1  0.80996307  0.07996698  0.53033340  1
  Li  Li1  1  0.39676410  0.14337283  0.80316929  1
  Li  Li2  1  0.19003415  0.92003115  0.46966770  1
  Li  Li3  1  0.26999169  0.19001395  0.53038054  1
  Li  Li4  1  0.74669433  0.60330056  0.80330847  1
  Li  Li5  1  0.08005196  0.27003777  0.46976153  1
  Li  Li6  1  0.58659158  0.06325790  0.86345069  1
  Li  Li7  1  0.91994779  0.72995710  0.53023449  1
  Li  Li8  1  0.73001127  0.80998655  0.46961826  1
  Li  Li9  1  0.41340802  0.93674189  0.13655058  1
  Li  Li10  1  0.25330654  0.39670302  0.19669212  1
  Li  Li11  1  0.93668445  0.52336628  0.86360328  1
  Li  Li12  1  0.06331493  0.47663437  0.13639752  1
  Li  Li13  1  0.60323298  0.85662670  0.19683550  1
  Li  Li14  1  0.47662998  0.41332987  0.86353235  1
  Li  Li15  1  0.52337086  0.58667216  0.13647094  1
  Li  Li16  1  0.85664542  0.25339495  0.80320660  1
  Li  Li17  1  0.14335686  0.74660707  0.19678652  1
  I  I18  1  0.83925330  0.54052836  0.58742726  1
  I  I19  1  0.96540591  0.17281927  0.74617899  1
  I  I20  1  0.16074368  0.45946836  0.41257558  1
  I  I21  1  0.70121381  0.16057645  0.58706498  1
  I  I22  1  0.20726620  0.03452083  0.74599856  1
  I  I23  1  0.54048476  0.70114893  0.41275040  1
  I  I24  1  0.12615906  0.63211526  0.92069652  1
  I  I25  1  0.45951583  0.29885211  0.58725428  1
  I  I26  1  0.29878556  0.83942378  0.41293579  1
  I  I27  1  0.87384109  0.36788439  0.07930092  1
  I  I28  1  0.79273281  0.96547841  0.25400089  1
  I  I29  1  0.36795469  0.49396349  0.92050170  1
  I  I30  1  0.63204679  0.50603948  0.07949999  1
  I  I31  1  0.03459246  0.82717827  0.25381736  1
  I  I32  1  0.50587062  0.87388255  0.92085288  1
  I  I33  1  0.49412907  0.12611707  0.07914887  1
  I  I34  1  0.82734664  0.79270139  0.74581572  1
  I  I35  1  0.17265773  0.20730049  0.25417953  1
