# generated using pymatgen
data_LiI
_symmetry_space_group_name_H-M   'P 1'
_cell_length_a   16.92005222
_cell_length_b   13.94757446
_cell_length_c   4.41398564
_cell_angle_alpha   90.00017443
_cell_angle_beta   90.00025283
_cell_angle_gamma   89.98518113
_symmetry_Int_Tables_number   1
_chemical_formula_structural   LiI
_chemical_formula_sum   'Li16 I16'
_cell_volume   1041.67271503
_cell_formula_units_Z   16
loop_
 _symmetry_equiv_pos_site_id
 _symmetry_equiv_pos_as_xyz
  1  'x, y, z'
loop_
 _atom_site_type_symbol
 _atom_site_label
 _atom_site_symmetry_multiplicity
 _atom_site_fract_x
 _atom_site_fract_y
 _atom_site_fract_z
 _atom_site_occupancy
  Li  Li0  1  0.08395228  0.26035615  0.65659919  1
  Li  Li1  1  0.91604795  0.73964559  0.65659549  1
  Li  Li2  1  0.16579527  0.50958966  0.90632767  1
  Li  Li3  1  0.41604759  0.73964636  0.15660108  1
  Li  Li4  1  0.66579512  0.50958808  0.40632859  1
  Li  Li5  1  0.33420684  0.99041588  0.90633119  1
  Li  Li6  1  0.58395340  0.26035224  0.15659643  1
  Li  Li7  1  0.66579461  0.00958732  0.90632848  1
  Li  Li8  1  0.33420402  0.49040925  0.40632796  1
  Li  Li9  1  0.58395262  0.76035412  0.65660094  1
  Li  Li10  1  0.41604741  0.23964759  0.65659643  1
  Li  Li11  1  0.16579311  0.00958501  0.40632971  1
  Li  Li12  1  0.83420539  0.99041306  0.40632992  1
  Li  Li13  1  0.83420417  0.49041103  0.90632955  1
  Li  Li14  1  0.08395275  0.76035390  0.15659566  1
  Li  Li15  1  0.91604838  0.23964369  0.15659922  1
  I  I16  1  0.80995945  0.10868089  0.91157059  1
  I  I17  1  0.19004056  0.89131968  0.91156546  1
  I  I18  1  0.43969565  0.35844625  0.16149720  1
  I  I19  1  0.69004058  0.89131910  0.41156656  1
  I  I20  1  0.93969541  0.35844648  0.66150119  1
  I  I21  1  0.06030477  0.14155417  0.16149573  1
  I  I22  1  0.30995903  0.10868058  0.41156965  1
  I  I23  1  0.93969538  0.85844623  0.16149702  1
  I  I24  1  0.06030457  0.64155389  0.66149317  1
  I  I25  1  0.30995919  0.60868067  0.91156988  1
  I  I26  1  0.69004034  0.39131967  0.91156472  1
  I  I27  1  0.43969542  0.85844618  0.66150067  1
  I  I28  1  0.56030457  0.14155366  0.66149336  1
  I  I29  1  0.56030472  0.64155370  0.16149674  1
  I  I30  1  0.80995912  0.60868055  0.41157026  1
  I  I31  1  0.19004032  0.39131938  0.41156581  1
