# generated using pymatgen
data_LiI
_symmetry_space_group_name_H-M   'P 1'
_cell_length_a   7.33887553
_cell_length_b   4.24203740
_cell_length_c   6.95549888
_cell_angle_alpha   90.00005621
_cell_angle_beta   89.99990487
_cell_angle_gamma   89.99820386
_symmetry_Int_Tables_number   1
_chemical_formula_structural   LiI
_chemical_formula_sum   'Li4 I4'
_cell_volume   216.53709231
_cell_formula_units_Z   4
loop_
 _symmetry_equiv_pos_site_id
 _symmetry_equiv_pos_as_xyz
  1  'x, y, z'
loop_
 _atom_site_type_symbol
 _atom_site_label
 _atom_site_symmetry_multiplicity
 _atom_site_fract_x
 _atom_site_fract_y
 _atom_site_fract_z
 _atom_site_occupancy
  Li  Li0  1  0.24704480  0.75324987  0.94606703  1
  Li  Li1  1  0.74704361  0.24675416  0.94606630  1
  Li  Li2  1  0.75295755  0.24675091  0.44606534  1
  Li  Li3  1  0.25295408  0.75324509  0.44606793  1
  I  I4  1  0.08372690  0.25142088  0.69777952  1
  I  I5  1  0.58372890  0.74858166  0.69777938  1
  I  I6  1  0.91627273  0.74857969  0.19777809  1
  I  I7  1  0.41627143  0.25141774  0.19778017  1
