# generated using pymatgen
data_LiBr
_symmetry_space_group_name_H-M   'P 1'
_cell_length_a   3.92277606
_cell_length_b   3.91711135
_cell_length_c   9.27771181
_cell_angle_alpha   89.99498027
_cell_angle_beta   90.08969515
_cell_angle_gamma   119.94351191
_symmetry_Int_Tables_number   1
_chemical_formula_structural   LiBr
_chemical_formula_sum   'Li3 Br3'
_cell_volume   123.53135251
_cell_formula_units_Z   3
loop_
 _symmetry_equiv_pos_site_id
 _symmetry_equiv_pos_as_xyz
  1  'x, y, z'
loop_
 _atom_site_type_symbol
 _atom_site_label
 _atom_site_symmetry_multiplicity
 _atom_site_fract_x
 _atom_site_fract_y
 _atom_site_fract_z
 _atom_site_occupancy
  Li  Li0  1  -0.00153940  0.33402273  0.85434210  1
  Li  Li1  1  0.66581697  0.66433446  0.18784894  1
  Li  Li2  1  0.33571989  0.00165725  0.52138922  1
  Br  Br3  1  0.00113046  0.33295478  0.35473781  1
  Br  Br4  1  0.66709409  0.66818975  0.68789172  1
  Br  Br5  1  0.33177798  -0.00115895  0.02097068  1
