# generated using pymatgen
data_NaI
_symmetry_space_group_name_H-M   'P 1'
_cell_length_a   8.31136028
_cell_length_b   8.28235256
_cell_length_c   5.36338405
_cell_angle_alpha   90.00353727
_cell_angle_beta   89.98920554
_cell_angle_gamma   90.00053680
_symmetry_Int_Tables_number   1
_chemical_formula_structural   NaI
_chemical_formula_sum   'Na4 I4'
_cell_volume   369.20256492
_cell_formula_units_Z   4
loop_
 _symmetry_equiv_pos_site_id
 _symmetry_equiv_pos_as_xyz
  1  'x, y, z'
loop_
 _atom_site_type_symbol
 _atom_site_label
 _atom_site_symmetry_multiplicity
 _atom_site_fract_x
 _atom_site_fract_y
 _atom_site_fract_z
 _atom_site_occupancy
  Na  Na0  1  0.64832993  0.29321865  0.25293984  1
  Na  Na1  1  0.85166903  0.79321762  0.74710955  1
  Na  Na2  1  0.35166921  0.70678075  0.25289399  1
  Na  Na3  1  0.14832828  0.20678419  0.74705717  1
  I  I4  1  0.22374278  0.83686540  0.75278618  1
  I  I5  1  0.27626123  0.33685503  0.24730936  1
  I  I6  1  0.77625722  0.16314157  0.75263329  1
  I  I7  1  0.72374233  0.66313679  0.24727062  1
