# generated using pymatgen
data_NaI
_symmetry_space_group_name_H-M   'P 1'
_cell_length_a   17.77035225
_cell_length_b   13.83472187
_cell_length_c   6.54185929
_cell_angle_alpha   103.52822020
_cell_angle_beta   79.57378908
_cell_angle_gamma   126.98791010
_symmetry_Int_Tables_number   1
_chemical_formula_structural   NaI
_chemical_formula_sum   'Na18 I18'
_cell_volume   1247.33166401
_cell_formula_units_Z   18
loop_
 _symmetry_equiv_pos_site_id
 _symmetry_equiv_pos_as_xyz
  1  'x, y, z'
loop_
 _atom_site_type_symbol
 _atom_site_label
 _atom_site_symmetry_multiplicity
 _atom_site_fract_x
 _atom_site_fract_y
 _atom_site_fract_z
 _atom_site_occupancy
  Na  Na0  1  0.02734223  0.13894708  0.80537402  1
  Na  Na1  1  0.47174839  0.36078286  0.69619405  1
  Na  Na2  1  -0.02734163  0.86105316  0.19463127  1
  Na  Na3  1  0.19491829  -0.02745123  0.63713709  1
  Na  Na4  1  0.91615480  0.58281879  0.58405298  1
  Na  Na5  1  0.24948829  0.24948421  0.25071744  1
  Na  Na6  1  0.41717818  0.08384774  0.08261295  1
  Na  Na7  1  0.75051129  0.75051577  0.74928420  1
  Na  Na8  1  0.80508166  0.02745139  0.36286518  1
  Na  Na9  1  0.58282199  0.91615239  0.91738256  1
  Na  Na10  1  0.08384531  0.41718140  0.41594987  1
  Na  Na11  1  0.86158537  0.30588448  -0.02952580  1
  Na  Na12  1  0.13841480  0.69411603  0.02952781  1
  Na  Na13  1  0.52825166  0.63921667  0.30380220  1
  Na  Na14  1  0.69400788  0.47228197  0.13870477  1
  Na  Na15  1  0.30599105  0.52771753  0.86129306  1
  Na  Na16  1  0.63932467  0.19438566  0.52796131  1
  Na  Na17  1  0.36067574  0.80561422  0.47203538  1
  I  I18  1  0.41702255  0.08345940  0.58270105  1
  I  I19  1  -0.02742554  0.86133679  0.69449299  1
  I  I20  1  0.58297732  0.91654009  0.41729550  1
  I  I21  1  0.69409151  0.47199657  0.63884213  1
  I  I22  1  0.80515705  0.02779561  0.86223476  1
  I  I23  1  0.13848993  0.69446058  0.52889844  1
  I  I24  1  0.52817636  0.63887184  -0.19556767  1
  I  I25  1  0.86151028  0.30553954  0.47110300  1
  I  I26  1  0.30590843  0.52800329  0.36115597  1
  I  I27  1  0.47182355  0.36112808  0.19556472  1
  I  I28  1  0.19484280  -0.02779545  0.13776706  1
  I  I29  1  0.36075836  0.80532892  -0.02782665  1
  I  I30  1  0.63924188  0.19467117  0.02782397  1
  I  I31  1  0.02742530  0.13866314  0.30551139  1
  I  I32  1  0.08368951  0.41679291  -0.08396259  1
  I  I33  1  0.91631066  0.58320730  0.08396492  1
  I  I34  1  0.24964416  0.24987258  0.75062953  1
  I  I35  1  0.75035592  0.75012754  0.24937112  1
