# generated using pymatgen
data_LiBr
_symmetry_space_group_name_H-M   'P 1'
_cell_length_a   4.78204910
_cell_length_b   4.77536525
_cell_length_c   15.54929499
_cell_angle_alpha   90.00057874
_cell_angle_beta   90.00001981
_cell_angle_gamma   90.00008159
_symmetry_Int_Tables_number   1
_chemical_formula_structural   LiBr
_chemical_formula_sum   'Li8 Br8'
_cell_volume   355.08418374
_cell_formula_units_Z   8
loop_
 _symmetry_equiv_pos_site_id
 _symmetry_equiv_pos_as_xyz
  1  'x, y, z'
loop_
 _atom_site_type_symbol
 _atom_site_label
 _atom_site_symmetry_multiplicity
 _atom_site_fract_x
 _atom_site_fract_y
 _atom_site_fract_z
 _atom_site_occupancy
  Li  Li0  1  0.49900573  0.50091835  0.62473849  1
  Li  Li1  1  0.50086220  0.49917827  0.37489123  1
  Li  Li2  1  -0.00099024  -0.00094284  0.62525265  1
  Li  Li3  1  0.49907769  0.50079099  0.87490791  1
  Li  Li4  1  0.00106038  0.00093508  0.12527668  1
  Li  Li5  1  0.50104400  0.49904832  0.12473753  1
  Li  Li6  1  0.00086967  0.00085604  0.87510271  1
  Li  Li7  1  -0.00093201  -0.00078212  0.37509034  1
  Br  Br8  1  0.50092607  -0.00046037  0.18974366  1
  Br  Br9  1  -0.00047921  0.50080975  0.81027625  1
  Br  Br10  1  0.00091514  0.50044890  0.06027105  1
  Br  Br11  1  0.00043893  0.49922336  0.31026397  1
  Br  Br12  1  -0.00087329  0.49954371  0.56025937  1
  Br  Br13  1  0.49912480  0.00044133  0.68973428  1
  Br  Br14  1  0.49950905  -0.00079021  0.43972026  1
  Br  Br15  1  0.50044110  0.00078145  0.93973363  1
