# generated using pymatgen
data_KI
_symmetry_space_group_name_H-M   'P 1'
_cell_length_a   7.18782807
_cell_length_b   7.18944848
_cell_length_c   7.18549030
_cell_angle_alpha   90.00000019
_cell_angle_beta   90.00000019
_cell_angle_gamma   90.00000200
_symmetry_Int_Tables_number   1
_chemical_formula_structural   KI
_chemical_formula_sum   'K4 I4'
_cell_volume   371.32113051
_cell_formula_units_Z   4
loop_
 _symmetry_equiv_pos_site_id
 _symmetry_equiv_pos_as_xyz
  1  'x, y, z'
loop_
 _atom_site_type_symbol
 _atom_site_label
 _atom_site_symmetry_multiplicity
 _atom_site_fract_x
 _atom_site_fract_y
 _atom_site_fract_z
 _atom_site_occupancy
  K  K0  1  0.25013798  0.75013152  0.63283172  1
  K  K1  1  0.74986207  0.75013141  0.13283171  1
  K  K2  1  0.74986202  0.24986851  0.63283143  1
  K  K3  1  0.25013793  0.24986856  0.13283144  1
  I  I4  1  0.75049303  0.25059423  0.13218853  1
  I  I5  1  0.24950692  0.25059432  0.63218868  1
  I  I6  1  0.24950697  0.74940576  0.13218881  1
  I  I7  1  0.75049308  0.74940569  0.63218868  1
