# generated using pymatgen
data_LiBr
_symmetry_space_group_name_H-M   'P 1'
_cell_length_a   4.17333765
_cell_length_b   4.17262539
_cell_length_c   10.09904691
_cell_angle_alpha   89.97425902
_cell_angle_beta   89.99356553
_cell_angle_gamma   120.00252019
_symmetry_Int_Tables_number   1
_chemical_formula_structural   LiBr
_chemical_formula_sum   'Li3 Br3'
_cell_volume   152.29752104
_cell_formula_units_Z   3
loop_
 _symmetry_equiv_pos_site_id
 _symmetry_equiv_pos_as_xyz
  1  'x, y, z'
loop_
 _atom_site_type_symbol
 _atom_site_label
 _atom_site_symmetry_multiplicity
 _atom_site_fract_x
 _atom_site_fract_y
 _atom_site_fract_z
 _atom_site_occupancy
  Li  Li0  1  0.99872729  0.33368729  0.79293733  1
  Li  Li1  1  0.66630287  0.66520827  0.12602032  1
  Li  Li2  1  0.33524299  0.00146159  0.45994578  1
  Br  Br3  1  0.33255701  -0.00155695  0.20784531  1
  Br  Br4  1  0.00141130  0.33392669  0.54150410  1
  Br  Br5  1  0.66575855  0.66727310  0.87428061  1
