# generated using pymatgen
data_LiI
_symmetry_space_group_name_H-M   'P 1'
_cell_length_a   10.93304864
_cell_length_b   10.93306826
_cell_length_c   9.28131750
_cell_angle_alpha   89.99988136
_cell_angle_beta   89.99988113
_cell_angle_gamma   90.00002971
_symmetry_Int_Tables_number   1
_chemical_formula_structural   LiI
_chemical_formula_sum   'Li16 I16'
_cell_volume   1109.41228220
_cell_formula_units_Z   16
loop_
 _symmetry_equiv_pos_site_id
 _symmetry_equiv_pos_as_xyz
  1  'x, y, z'
loop_
 _atom_site_type_symbol
 _atom_site_label
 _atom_site_symmetry_multiplicity
 _atom_site_fract_x
 _atom_site_fract_y
 _atom_site_fract_z
 _atom_site_occupancy
  Li  Li0  1  0.16728042  -0.00081502  0.98885090  1
  Li  Li1  1  0.49918422  0.16728176  0.23885047  1
  Li  Li2  1  0.83272080  -0.00081387  0.48884865  1
  Li  Li3  1  0.83271954  0.00081535  0.98884789  1
  Li  Li4  1  0.50081598  0.83271821  0.23884718  1
  Li  Li5  1  0.00081444  0.66728309  0.23884890  1
  Li  Li6  1  -0.00081478  0.33271664  0.23884738  1
  Li  Li7  1  0.50081448  0.16728332  0.73884909  1
  Li  Li8  1  0.49918559  0.83271696  0.73884749  1
  Li  Li9  1  0.33272032  0.50081595  0.48884602  1
  Li  Li10  1  0.00081471  0.33272235  0.73884755  1
  Li  Li11  1  0.66727963  0.49918474  0.48884919  1
  Li  Li12  1  -0.00081454  0.66727737  0.73885068  1
  Li  Li13  1  0.33272041  0.49918492  0.98884712  1
  Li  Li14  1  0.66727917  0.50081475  0.98884907  1
  Li  Li15  1  0.16727974  0.00081326  0.48885067  1
  I  I16  1  0.00108560  0.19420447  0.98861381  1
  I  I17  1  0.69420497  0.00108569  0.23861547  1
  I  I18  1  -0.00108318  0.19420470  0.48861471  1
  I  I19  1  -0.00108563  0.80579591  0.98861457  1
  I  I20  1  0.30579530  -0.00108557  0.23861621  1
  I  I21  1  0.80579491  0.50108439  0.23861373  1
  I  I22  1  0.19420457  0.49891532  0.23861301  1
  I  I23  1  0.30579577  0.00108424  0.73861531  1
  I  I24  1  0.69420430  -0.00108385  0.73861430  1
  I  I25  1  0.49891421  0.30579568  0.48861451  1
  I  I26  1  0.80579458  0.49891509  0.73861477  1
  I  I27  1  0.50108587  0.69420504  0.48861378  1
  I  I28  1  0.19420547  0.50108491  0.73861364  1
  I  I29  1  0.49891487  0.69420504  0.98861437  1
  I  I30  1  0.50108467  0.30579461  0.98861529  1
  I  I31  1  0.00108360  0.80579455  0.48861531  1
