# generated using pymatgen
data_LiBr
_symmetry_space_group_name_H-M   'P 1'
_cell_length_a   4.36116891
_cell_length_b   4.35987122
_cell_length_c   8.88242133
_cell_angle_alpha   89.99159096
_cell_angle_beta   90.00893871
_cell_angle_gamma   119.98656547
_symmetry_Int_Tables_number   1
_chemical_formula_structural   LiBr
_chemical_formula_sum   'Li3 Br3'
_cell_volume   146.28417289
_cell_formula_units_Z   3
loop_
 _symmetry_equiv_pos_site_id
 _symmetry_equiv_pos_as_xyz
  1  'x, y, z'
loop_
 _atom_site_type_symbol
 _atom_site_label
 _atom_site_symmetry_multiplicity
 _atom_site_fract_x
 _atom_site_fract_y
 _atom_site_fract_z
 _atom_site_occupancy
  Li  Li0  1  0.00211520  0.66641007  0.04167927  1
  Li  Li1  1  0.33356948  0.33555833  0.70656646  1
  Li  Li2  1  0.66448823  -0.00189766  0.37384854  1
  Br  Br3  1  0.33527010  0.33287781  -0.01118404  1
  Br  Br4  1  0.66694021  0.00219159  0.65530487  1
  Br  Br5  1  -0.00238322  0.66485985  0.32278834  1
