# generated using pymatgen
data_LiBr
_symmetry_space_group_name_H-M   'P 1'
_cell_length_a   6.00560455
_cell_length_b   5.94224426
_cell_length_c   5.70117150
_cell_angle_alpha   89.99997762
_cell_angle_beta   89.99950831
_cell_angle_gamma   90.00060770
_symmetry_Int_Tables_number   1
_chemical_formula_structural   LiBr
_chemical_formula_sum   'Li4 Br4'
_cell_volume   203.45639149
_cell_formula_units_Z   4
loop_
 _symmetry_equiv_pos_site_id
 _symmetry_equiv_pos_as_xyz
  1  'x, y, z'
loop_
 _atom_site_type_symbol
 _atom_site_label
 _atom_site_symmetry_multiplicity
 _atom_site_fract_x
 _atom_site_fract_y
 _atom_site_fract_z
 _atom_site_occupancy
  Li  Li0  1  0.74965941  0.25035137  0.75016190  1
  Li  Li1  1  0.25034050  0.75035146  0.74983982  1
  Li  Li2  1  0.75034057  0.74964603  0.25016201  1
  Li  Li3  1  0.24965964  0.24964696  0.24984005  1
  Br  Br4  1  0.00048486  0.49936852  0.50008633  1
  Br  Br5  1  -0.00048491  -0.00063179  -0.00008805  1
  Br  Br6  1  0.49951506  0.50063353  0.00008625  1
  Br  Br7  1  0.50048486  0.00063392  0.49991170  1
