# generated using pymatgen
data_LiI
_symmetry_space_group_name_H-M   'P 1'
_cell_length_a   11.11132708
_cell_length_b   11.11137941
_cell_length_c   4.84711144
_cell_angle_alpha   90.00049264
_cell_angle_beta   89.99839540
_cell_angle_gamma   89.99985663
_symmetry_Int_Tables_number   1
_chemical_formula_structural   LiI
_chemical_formula_sum   'Li8 I8'
_cell_volume   598.43490048
_cell_formula_units_Z   8
loop_
 _symmetry_equiv_pos_site_id
 _symmetry_equiv_pos_as_xyz
  1  'x, y, z'
loop_
 _atom_site_type_symbol
 _atom_site_label
 _atom_site_symmetry_multiplicity
 _atom_site_fract_x
 _atom_site_fract_y
 _atom_site_fract_z
 _atom_site_occupancy
  Li  Li0  1  0.64821035  0.30988078  0.25166678  1
  Li  Li1  1  0.30988161  0.35178876  0.74833609  1
  Li  Li2  1  0.35179008  0.69012063  0.25166469  1
  Li  Li3  1  0.80988043  0.85179023  0.25166800  1
  Li  Li4  1  0.19011824  0.14821009  0.25166341  1
  Li  Li5  1  0.14821041  0.80987850  0.74833557  1
  Li  Li6  1  0.69011974  0.64821091  0.74833211  1
  Li  Li7  1  0.85178917  0.19012010  0.74833331  1
  I  I8  1  0.27675246  0.59503066  0.75131696  1
  I  I9  1  0.59503157  0.72324997  0.24868239  1
  I  I10  1  0.72324873  0.40496932  0.75131895  1
  I  I11  1  0.09503101  0.22325032  0.75131801  1
  I  I12  1  0.90496845  0.77675128  0.75131777  1
  I  I13  1  0.77675070  0.09503155  0.24868111  1
  I  I14  1  0.40496896  0.27674836  0.24868159  1
  I  I15  1  0.22324811  0.90496854  0.24868327  1
