# generated using pymatgen
data_LiBr
_symmetry_space_group_name_H-M   'P 1'
_cell_length_a   7.44879479
_cell_length_b   7.44875351
_cell_length_c   9.49080766
_cell_angle_alpha   90.00070576
_cell_angle_beta   89.99977904
_cell_angle_gamma   120.00169722
_symmetry_Int_Tables_number   1
_chemical_formula_structural   LiBr
_chemical_formula_sum   'Li9 Br9'
_cell_volume   456.03270412
_cell_formula_units_Z   9
loop_
 _symmetry_equiv_pos_site_id
 _symmetry_equiv_pos_as_xyz
  1  'x, y, z'
loop_
 _atom_site_type_symbol
 _atom_site_label
 _atom_site_symmetry_multiplicity
 _atom_site_fract_x
 _atom_site_fract_y
 _atom_site_fract_z
 _atom_site_occupancy
  Li  Li0  1  0.20371220  0.33321950  0.83014529  1
  Li  Li1  1  0.00008854  0.53702327  0.49693748  1
  Li  Li2  1  0.53692376  -0.00008267  0.49693667  1
  Li  Li3  1  0.33343802  0.20381384  0.16346135  1
  Li  Li4  1  0.87036319  0.66656402  0.16345825  1
  Li  Li5  1  0.79619384  0.12963115  0.16345314  1
  Li  Li6  1  0.66677145  0.87050166  0.83015085  1
  Li  Li7  1  0.46299107  0.46306877  0.49693842  1
  Li  Li8  1  0.12949865  0.79627447  0.83014880  1
  Br  Br9  1  0.47377332  0.00044860  -0.00476127  1
  Br  Br10  1  0.33284589  0.14005137  0.66191029  1
  Br  Br11  1  0.80721663  0.66715370  0.66190823  1
  Br  Br12  1  0.66620428  0.80676555  0.32863154  1
  Br  Br13  1  0.14056528  0.33379983  0.32863531  1
  Br  Br14  1  0.19324094  0.85944155  0.32862755  1
  Br  Br15  1  -0.00045502  0.47331942  -0.00475400  1
  Br  Br16  1  0.85995008  0.19278362  0.66191166  1
  Br  Br17  1  0.52667791  0.52622232  -0.00476404  1
