# generated using pymatgen
data_LiBr
_symmetry_space_group_name_H-M   'P 1'
_cell_length_a   7.37069490
_cell_length_b   7.36896245
_cell_length_c   3.99835217
_cell_angle_alpha   89.99935014
_cell_angle_beta   90.00010864
_cell_angle_gamma   90.01396840
_symmetry_Int_Tables_number   1
_chemical_formula_structural   LiBr
_chemical_formula_sum   'Li4 Br4'
_cell_volume   217.16798821
_cell_formula_units_Z   4
loop_
 _symmetry_equiv_pos_site_id
 _symmetry_equiv_pos_as_xyz
  1  'x, y, z'
loop_
 _atom_site_type_symbol
 _atom_site_label
 _atom_site_symmetry_multiplicity
 _atom_site_fract_x
 _atom_site_fract_y
 _atom_site_fract_z
 _atom_site_occupancy
  Li  Li0  1  0.66295410  0.07649298  0.41593044  1
  Li  Li1  1  0.07657879  0.33708542  0.66558240  1
  Li  Li2  1  0.33704434  -0.07649364  0.91594317  1
  Li  Li3  1  -0.07657726  0.66291351  0.16557679  1
  Br  Br4  1  0.14293693  0.67383096  0.66938655  1
  Br  Br5  1  0.67367111  0.85696145  0.91981561  1
  Br  Br6  1  0.85706392  0.32616979  0.16939104  1
  Br  Br7  1  0.32632807  0.14303951  0.41981356  1
