# generated using pymatgen
data_KI
_symmetry_space_group_name_H-M   'P 1'
_cell_length_a   19.61859605
_cell_length_b   19.61859829
_cell_length_c   9.61457408
_cell_angle_alpha   90.00011563
_cell_angle_beta   90.00010249
_cell_angle_gamma   90.00000393
_symmetry_Int_Tables_number   1
_chemical_formula_structural   KI
_chemical_formula_sum   'K16 I16'
_cell_volume   3700.54721652
_cell_formula_units_Z   16
loop_
 _symmetry_equiv_pos_site_id
 _symmetry_equiv_pos_as_xyz
  1  'x, y, z'
loop_
 _atom_site_type_symbol
 _atom_site_label
 _atom_site_symmetry_multiplicity
 _atom_site_fract_x
 _atom_site_fract_y
 _atom_site_fract_z
 _atom_site_occupancy
  K  K0  1  0.33961088  0.50001565  0.25047676  1
  K  K1  1  -0.00001583  0.83961076  0.25047693  1
  K  K2  1  0.16039026  0.00001725  0.24952319  1
  K  K3  1  0.50001573  0.66038920  0.74952311  1
  K  K4  1  0.33960979  0.49998284  0.75047677  1
  K  K5  1  0.49998434  0.33961093  0.74952175  1
  K  K6  1  0.16038907  -0.00001558  0.74952324  1
  K  K7  1  0.83961087  0.00001540  0.74952189  1
  K  K8  1  0.00001730  0.83960988  0.75047684  1
  K  K9  1  0.66039010  0.50001709  0.75047799  1
  K  K10  1  -0.00001713  0.16039019  0.75047832  1
  K  K11  1  0.66038917  0.49998453  0.25047811  1
  K  K12  1  0.00001575  0.16038910  0.25047829  1
  K  K13  1  0.49998262  0.66039018  0.24952315  1
  K  K14  1  0.83960986  -0.00001717  0.24952197  1
  K  K15  1  0.50001722  0.33960974  0.24952167  1
  I  I16  1  0.87778010  0.87743731  0.50004339  1
  I  I17  1  0.62256255  0.37777998  0.50004447  1
  I  I18  1  0.62222106  0.37743842  -0.00004444  1
  I  I19  1  0.87743759  0.12221990  0.49995553  1
  I  I20  1  0.87777906  0.12256144  0.00004444  1
  I  I21  1  0.12256249  0.87778015  0.49995546  1
  I  I22  1  0.62221978  0.62256256  0.49995659  1
  I  I23  1  0.37778032  0.37743751  0.49995421  1
  I  I24  1  0.37743864  0.37777897  0.00004311  1
  I  I25  1  0.12222091  0.87743851  0.00004429  1
  I  I26  1  0.62256129  0.62222093  0.00004547  1
  I  I27  1  0.12221980  0.12256262  0.50004576  1
  I  I28  1  0.37743737  0.62221997  0.50004453  1
  I  I29  1  0.12256150  0.12222114  -0.00004309  1
  I  I30  1  0.37777896  0.62256163  -0.00004427  1
  I  I31  1  0.87743857  0.87777896  -0.00004545  1
