# generated using pymatgen
data_NaI
_symmetry_space_group_name_H-M   'P 1'
_cell_length_a   12.14019010
_cell_length_b   11.60058695
_cell_length_c   11.50290974
_cell_angle_alpha   90.00092537
_cell_angle_beta   90.00091571
_cell_angle_gamma   89.99965655
_symmetry_Int_Tables_number   1
_chemical_formula_structural   NaI
_chemical_formula_sum   'Na16 I16'
_cell_volume   1619.99309343
_cell_formula_units_Z   16
loop_
 _symmetry_equiv_pos_site_id
 _symmetry_equiv_pos_as_xyz
  1  'x, y, z'
loop_
 _atom_site_type_symbol
 _atom_site_label
 _atom_site_symmetry_multiplicity
 _atom_site_fract_x
 _atom_site_fract_y
 _atom_site_fract_z
 _atom_site_occupancy
  Na  Na0  1  0.83299429  0.00093209  0.55256322  1
  Na  Na1  1  0.16700601  -0.00093304  0.55256491  1
  Na  Na2  1  0.41700559  0.25093148  0.80256326  1
  Na  Na3  1  0.66700596  -0.00093306  0.05256512  1
  Na  Na4  1  0.91700555  0.25093129  0.30256311  1
  Na  Na5  1  0.08299394  0.24907149  0.80256240  1
  Na  Na6  1  0.33299428  0.00093193  0.05256289  1
  Na  Na7  1  0.91700552  0.75093191  0.80256317  1
  Na  Na8  1  0.08299394  0.74907122  0.30256264  1
  Na  Na9  1  0.33299455  0.50093170  0.55256257  1
  Na  Na10  1  0.66700613  0.49906735  0.55256456  1
  Na  Na11  1  0.41700561  0.75093174  0.30256305  1
  Na  Na12  1  0.58299379  0.24907128  0.30256261  1
  Na  Na13  1  0.58299388  0.74907098  0.80256237  1
  Na  Na14  1  0.83299442  0.50093148  0.05256260  1
  Na  Na15  1  0.16700626  0.49906754  0.05256452  1
  I  I16  1  0.24926814  0.45567726  0.80204468  1
  I  I17  1  0.75073267  0.54432168  0.80204208  1
  I  I18  1  0.00073079  0.70567721  0.05204479  1
  I  I19  1  0.25073269  0.54432171  0.30204191  1
  I  I20  1  0.50073110  0.70567701  0.55204494  1
  I  I21  1  0.49926811  0.79432217  0.05204213  1
  I  I22  1  0.74926803  0.45567712  0.30204441  1
  I  I23  1  0.50073044  0.20567698  0.05204472  1
  I  I24  1  0.49926919  0.29432227  0.55204220  1
  I  I25  1  0.74926780  0.95567725  0.80204482  1
  I  I26  1  0.25073270  0.04432165  0.80204231  1
  I  I27  1  0.00073066  0.20567709  0.55204438  1
  I  I28  1  -0.00073188  0.79432234  0.55204215  1
  I  I29  1  -0.00073065  0.29432213  0.05204190  1
  I  I30  1  0.24926819  0.95567717  0.30204491  1
  I  I31  1  0.75073232  0.04432158  0.30204250  1
