# generated using pymatgen
data_NaBr
_symmetry_space_group_name_H-M   'P 1'
_cell_length_a   7.26699921
_cell_length_b   7.19904533
_cell_length_c   8.40408487
_cell_angle_alpha   90.00009523
_cell_angle_beta   90.00002574
_cell_angle_gamma   90.00000231
_symmetry_Int_Tables_number   1
_chemical_formula_structural   NaBr
_chemical_formula_sum   'Na8 Br8'
_cell_volume   439.66353853
_cell_formula_units_Z   8
loop_
 _symmetry_equiv_pos_site_id
 _symmetry_equiv_pos_as_xyz
  1  'x, y, z'
loop_
 _atom_site_type_symbol
 _atom_site_label
 _atom_site_symmetry_multiplicity
 _atom_site_fract_x
 _atom_site_fract_y
 _atom_site_fract_z
 _atom_site_occupancy
  Na  Na0  1  0.25005761  0.00122824  0.37584619  1
  Na  Na1  1  0.25005763  0.49877165  0.87586005  1
  Na  Na2  1  0.75005764  0.49877177  0.62415185  1
  Na  Na3  1  0.24994246  -0.00122826  0.87586185  1
  Na  Na4  1  0.74994246  0.50122827  0.12414009  1
  Na  Na5  1  0.24994235  0.50122830  0.37584830  1
  Na  Na6  1  0.75005756  0.00122832  0.12413796  1
  Na  Na7  1  0.74994229  -0.00122830  0.62415367  1
  Br  Br8  1  0.08419325  0.74991620  0.62547299  1
  Br  Br9  1  0.08419109  0.75008390  0.12546994  1
  Br  Br10  1  0.58419324  0.75008448  0.37452700  1
  Br  Br11  1  0.41580892  0.25008459  0.12547007  1
  Br  Br12  1  0.91580891  0.24991606  0.87452998  1
  Br  Br13  1  0.41580677  0.24991557  0.62547295  1
  Br  Br14  1  0.58419107  0.74991544  0.87453000  1
  Br  Br15  1  0.91580676  0.25008376  0.37452710  1
