# generated using pymatgen
data_NaI
_symmetry_space_group_name_H-M   'P 1'
_cell_length_a   9.22120588
_cell_length_b   6.53754408
_cell_length_c   4.61584955
_cell_angle_alpha   89.99993508
_cell_angle_beta   89.99931952
_cell_angle_gamma   90.00004493
_symmetry_Int_Tables_number   1
_chemical_formula_structural   NaI
_chemical_formula_sum   'Na4 I4'
_cell_volume   278.26205815
_cell_formula_units_Z   4
loop_
 _symmetry_equiv_pos_site_id
 _symmetry_equiv_pos_as_xyz
  1  'x, y, z'
loop_
 _atom_site_type_symbol
 _atom_site_label
 _atom_site_symmetry_multiplicity
 _atom_site_fract_x
 _atom_site_fract_y
 _atom_site_fract_z
 _atom_site_occupancy
  Na  Na0  1  0.87542194  0.75117186  -0.00057140  1
  Na  Na1  1  0.12457798  0.25117204  0.50057172  1
  Na  Na2  1  0.62457797  0.24882815  0.49943175  1
  Na  Na3  1  0.37542217  0.74882819  0.00056803  1
  I  I4  1  0.12526157  0.75073724  0.50070758  1
  I  I5  1  0.87473844  0.25073717  -0.00070792  1
  I  I6  1  0.37473720  0.24926274  0.00070702  1
  I  I7  1  0.62526273  0.74926262  0.49929321  1
