# generated using pymatgen
data_KI
_symmetry_space_group_name_H-M   'P 1'
_cell_length_a   9.79648667
_cell_length_b   4.53420784
_cell_length_c   8.43695334
_cell_angle_alpha   90.00000565
_cell_angle_beta   89.99999281
_cell_angle_gamma   90.00069993
_symmetry_Int_Tables_number   1
_chemical_formula_structural   KI
_chemical_formula_sum   'K4 I4'
_cell_volume   374.76361756
_cell_formula_units_Z   4
loop_
 _symmetry_equiv_pos_site_id
 _symmetry_equiv_pos_as_xyz
  1  'x, y, z'
loop_
 _atom_site_type_symbol
 _atom_site_label
 _atom_site_symmetry_multiplicity
 _atom_site_fract_x
 _atom_site_fract_y
 _atom_site_fract_z
 _atom_site_occupancy
  K  K0  1  0.37827123  0.00072596  0.08346097  1
  K  K1  1  0.87827094  0.99927352  0.08346106  1
  K  K2  1  0.62172898  0.99927409  0.58346077  1
  K  K3  1  0.12172915  0.00072644  0.58346096  1
  I  I4  1  0.12788231  0.50050825  0.25003643  1
  I  I5  1  0.62788222  0.49949128  0.25003627  1
  I  I6  1  0.87211750  0.49949176  0.75003645  1
  I  I7  1  0.37211767  0.50050870  0.75003625  1
