# generated using pymatgen
data_LiI
_symmetry_space_group_name_H-M   'P 1'
_cell_length_a   12.03690194
_cell_length_b   12.03483695
_cell_length_c   7.90332157
_cell_angle_alpha   89.99971358
_cell_angle_beta   89.99986287
_cell_angle_gamma   89.99969703
_symmetry_Int_Tables_number   1
_chemical_formula_structural   LiI
_chemical_formula_sum   'Li16 I16'
_cell_volume   1144.89217172
_cell_formula_units_Z   16
loop_
 _symmetry_equiv_pos_site_id
 _symmetry_equiv_pos_as_xyz
  1  'x, y, z'
loop_
 _atom_site_type_symbol
 _atom_site_label
 _atom_site_symmetry_multiplicity
 _atom_site_fract_x
 _atom_site_fract_y
 _atom_site_fract_z
 _atom_site_occupancy
  Li  Li0  1  0.37841522  0.94468698  0.55115769  1
  Li  Li1  1  0.44465362  0.37848540  0.80040847  1
  Li  Li2  1  0.62158609  0.94468541  0.05115932  1
  Li  Li3  1  0.62158675  0.05531514  0.55116078  1
  Li  Li4  1  0.55534794  0.62151560  0.80041055  1
  Li  Li5  1  0.05534422  0.87848333  0.80041111  1
  Li  Li6  1  0.94465551  0.12151598  0.80041221  1
  Li  Li7  1  0.55534577  0.37848370  0.30040855  1
  Li  Li8  1  0.44465341  0.62151480  0.30041057  1
  Li  Li9  1  0.12158653  0.55531470  0.05115867  1
  Li  Li10  1  0.05534536  0.12151660  0.30041158  1
  Li  Li11  1  0.87841565  0.44468800  0.05115536  1
  Li  Li12  1  0.94465572  0.87848476  0.30041147  1
  Li  Li13  1  0.12158525  0.44468602  0.55115663  1
  Li  Li14  1  0.87841353  0.55531246  0.55115638  1
  Li  Li15  1  0.37841355  0.05531300  0.05115979  1
  I  I16  1  0.05600384  0.65084923  0.73958415  1
  I  I17  1  0.15085994  0.05602313  0.98927624  1
  I  I18  1  0.94399394  0.65085087  0.23958413  1
  I  I19  1  0.94399422  0.34914962  0.73958175  1
  I  I20  1  0.84913820  0.94397607  0.98927603  1
  I  I21  1  0.34913917  0.55602603  0.98927196  1
  I  I22  1  0.65086198  0.44397440  0.98927264  1
  I  I23  1  0.84913957  0.05602576  0.48927639  1
  I  I24  1  0.15086156  0.94397523  0.48927652  1
  I  I25  1  0.44399336  0.84914902  0.23958357  1
  I  I26  1  0.34913734  0.44397548  0.48927130  1
  I  I27  1  0.55600525  0.15084881  0.23958547  1
  I  I28  1  0.65086017  0.55602276  0.48927240  1
  I  I29  1  0.44399299  0.15085048  0.73958556  1
  I  I30  1  0.55600785  0.84915039  0.73958329  1
  I  I31  1  0.05600651  0.34915084  0.23958116  1
