# generated using pymatgen
data_LiBr
_symmetry_space_group_name_H-M   'P 1'
_cell_length_a   11.07167371
_cell_length_b   11.07564289
_cell_length_c   4.01087808
_cell_angle_alpha   90.00017160
_cell_angle_beta   89.99996994
_cell_angle_gamma   120.10379016
_symmetry_Int_Tables_number   1
_chemical_formula_structural   LiBr
_chemical_formula_sum   'Li6 Br6'
_cell_volume   425.49763899
_cell_formula_units_Z   6
loop_
 _symmetry_equiv_pos_site_id
 _symmetry_equiv_pos_as_xyz
  1  'x, y, z'
loop_
 _atom_site_type_symbol
 _atom_site_label
 _atom_site_symmetry_multiplicity
 _atom_site_fract_x
 _atom_site_fract_y
 _atom_site_fract_z
 _atom_site_occupancy
  Li  Li0  1  -0.05284020  0.65988472  0.77449837  1
  Li  Li1  1  0.28688973  -0.05253758  0.44156720  1
  Li  Li2  1  0.71310946  0.05253828  0.44157101  1
  Li  Li3  1  0.66043527  0.71312951  0.10813960  1
  Li  Li4  1  0.33956585  0.28687089  0.10814137  1
  Li  Li5  1  0.05283984  0.34011458  0.77450489  1
  Br  Br6  1  0.90479829  0.28501797  0.28044896  1
  Br  Br7  1  0.61988208  0.90455773  0.94748234  1
  Br  Br8  1  0.38011947  0.09544258  0.94748037  1
  Br  Br9  1  0.28472156  0.37975906  0.61402515  1
  Br  Br10  1  0.71527740  0.62023925  0.61402175  1
  Br  Br11  1  0.09520126  0.71498301  0.28044330  1
