# generated using pymatgen
data_LiBr
_symmetry_space_group_name_H-M   'P 1'
_cell_length_a   4.26138473
_cell_length_b   6.55371600
_cell_length_c   8.32651601
_cell_angle_alpha   90.00005447
_cell_angle_beta   89.99996770
_cell_angle_gamma   89.99999418
_symmetry_Int_Tables_number   1
_chemical_formula_structural   LiBr
_chemical_formula_sum   'Li4 Br4'
_cell_volume   232.54215028
_cell_formula_units_Z   4
loop_
 _symmetry_equiv_pos_site_id
 _symmetry_equiv_pos_as_xyz
  1  'x, y, z'
loop_
 _atom_site_type_symbol
 _atom_site_label
 _atom_site_symmetry_multiplicity
 _atom_site_fract_x
 _atom_site_fract_y
 _atom_site_fract_z
 _atom_site_occupancy
  Li  Li0  1  0.24992997  0.81023063  0.84952038  1
  Li  Li1  1  0.75006980  0.31022963  0.65048270  1
  Li  Li2  1  0.25007014  0.18977097  0.34951604  1
  Li  Li3  1  0.74992944  0.68977021  0.15048089  1
  Br  Br4  1  0.74998413  0.39982129  0.34730660  1
  Br  Br5  1  0.25001624  0.89982058  0.15269424  1
  Br  Br6  1  0.75001593  0.60017868  0.84730672  1
  Br  Br7  1  0.24998434  0.10017802  0.65269242  1
