# generated using pymatgen
data_LiBr
_symmetry_space_group_name_H-M   'P 1'
_cell_length_a   5.50846139
_cell_length_b   5.66345065
_cell_length_c   8.48628564
_cell_angle_alpha   89.99524590
_cell_angle_beta   129.83555042
_cell_angle_gamma   90.00801145
_symmetry_Int_Tables_number   1
_chemical_formula_structural   LiBr
_chemical_formula_sum   'Li4 Br4'
_cell_volume   203.29464406
_cell_formula_units_Z   4
loop_
 _symmetry_equiv_pos_site_id
 _symmetry_equiv_pos_as_xyz
  1  'x, y, z'
loop_
 _atom_site_type_symbol
 _atom_site_label
 _atom_site_symmetry_multiplicity
 _atom_site_fract_x
 _atom_site_fract_y
 _atom_site_fract_z
 _atom_site_occupancy
  Li  Li0  1  0.25126048  -0.00391014  0.74989297  1
  Li  Li1  1  0.74871714  0.49607128  0.75007749  1
  Li  Li2  1  0.74873872  0.00391001  0.25010561  1
  Li  Li3  1  0.25128255  0.50393048  0.24992109  1
  Br  Br4  1  0.24961119  0.24945953  0.49946861  1
  Br  Br5  1  0.75038307  0.74946060  0.00052598  1
  Br  Br6  1  0.75039036  0.75053831  0.50053276  1
  Br  Br7  1  0.24961648  0.25053994  -0.00052450  1
