# generated using pymatgen
data_LiBr
_symmetry_space_group_name_H-M   'P 1'
_cell_length_a   11.90637431
_cell_length_b   11.90637134
_cell_length_c   7.30459076
_cell_angle_alpha   90.00103315
_cell_angle_beta   89.99898307
_cell_angle_gamma   120.00363680
_symmetry_Int_Tables_number   1
_chemical_formula_structural   LiBr
_chemical_formula_sum   'Li18 Br18'
_cell_volume   896.74622945
_cell_formula_units_Z   18
loop_
 _symmetry_equiv_pos_site_id
 _symmetry_equiv_pos_as_xyz
  1  'x, y, z'
loop_
 _atom_site_type_symbol
 _atom_site_label
 _atom_site_symmetry_multiplicity
 _atom_site_fract_x
 _atom_site_fract_y
 _atom_site_fract_z
 _atom_site_occupancy
  Li  Li0  1  0.16408533  0.95608690  0.90238990  1
  Li  Li1  1  0.16407398  0.20799313  0.40239656  1
  Li  Li2  1  0.37720625  0.50260691  0.06906836  1
  Li  Li3  1  0.12540883  0.62279223  0.06907257  1
  Li  Li4  1  0.71045222  0.54130928  0.23567364  1
  Li  Li5  1  0.04391608  0.20799255  0.90239193  1
  Li  Li6  1  0.12540699  0.50261215  0.56907534  1
  Li  Li7  1  0.37720790  0.87459142  0.56907188  1
  Li  Li8  1  0.79200718  0.83592565  0.90239760  1
  Li  Li9  1  0.79200700  0.95608377  0.40239073  1
  Li  Li10  1  0.49739321  0.62279398  0.56906808  1
  Li  Li11  1  0.49738798  0.87459342  0.06907464  1
  Li  Li12  1  0.45869231  0.16914696  0.23567800  1
  Li  Li13  1  0.45868992  0.28954754  0.73567214  1
  Li  Li14  1  0.04391306  0.83591538  0.40239023  1
  Li  Li15  1  0.71045524  0.16915177  0.73567314  1
  Li  Li16  1  0.83084815  0.28954520  0.23567314  1
  Li  Li17  1  0.83085324  0.54130811  0.73567793  1
  Br  Br18  1  0.83498365  0.79107261  0.23315580  1
  Br  Br19  1  0.83498618  0.04391444  0.73315893  1
  Br  Br20  1  0.54226413  0.83163726  0.39979522  1
  Br  Br21  1  0.28937521  0.45774012  0.39979709  1
  Br  Br22  1  0.87564565  0.37726727  0.56648949  1
  Br  Br23  1  0.20892525  0.04391308  0.23315575  1
  Br  Br24  1  0.28937247  0.83163395  0.89979586  1
  Br  Br25  1  0.54226010  0.71062500  0.89979647  1
  Br  Br26  1  0.95608524  0.16501384  0.23315910  1
  Br  Br27  1  0.95608684  0.79107463  0.73315630  1
  Br  Br28  1  0.16836253  0.45773562  0.89979526  1
  Br  Br29  1  0.16836579  0.71062789  0.39979625  1
  Br  Br30  1  0.62273678  0.49837978  0.56649269  1
  Br  Br31  1  0.62273308  0.12435459  0.06648904  1
  Br  Br32  1  0.20892690  0.16501574  0.73315487  1
  Br  Br33  1  0.87564730  0.49838243  0.06649148  1
  Br  Br34  1  0.50161806  0.12435256  0.56649077  1
  Br  Br35  1  0.50161997  0.37726284  0.06649155  1
