# generated using pymatgen
data_KI
_symmetry_space_group_name_H-M   'P 1'
_cell_length_a   7.20541099
_cell_length_b   7.06270913
_cell_length_c   7.20908861
_cell_angle_alpha   90.00002648
_cell_angle_beta   89.99999856
_cell_angle_gamma   90.00000255
_symmetry_Int_Tables_number   1
_chemical_formula_structural   KI
_chemical_formula_sum   'K4 I4'
_cell_volume   366.86851529
_cell_formula_units_Z   4
loop_
 _symmetry_equiv_pos_site_id
 _symmetry_equiv_pos_as_xyz
  1  'x, y, z'
loop_
 _atom_site_type_symbol
 _atom_site_label
 _atom_site_symmetry_multiplicity
 _atom_site_fract_x
 _atom_site_fract_y
 _atom_site_fract_z
 _atom_site_occupancy
  K  K0  1  0.25024828  0.74947212  0.29438000  1
  K  K1  1  0.74975178  0.74947212  0.79437996  1
  K  K2  1  0.74975186  0.25052780  0.29438992  1
  K  K3  1  0.25024808  0.25052787  0.79438995  1
  I  I4  1  0.74997477  0.75060114  0.29445768  1
  I  I5  1  0.25002528  0.75060120  0.79445784  1
  I  I6  1  0.25002542  0.24939889  0.29444323  1
  I  I7  1  0.74997452  0.24939887  0.79444309  1
