# generated using pymatgen
data_LiI
_symmetry_space_group_name_H-M   'P 1'
_cell_length_a   4.71996732
_cell_length_b   7.87708052
_cell_length_c   7.46417378
_cell_angle_alpha   89.99589103
_cell_angle_beta   89.99971921
_cell_angle_gamma   89.99994933
_symmetry_Int_Tables_number   1
_chemical_formula_structural   LiI
_chemical_formula_sum   'Li4 I4'
_cell_volume   277.51471598
_cell_formula_units_Z   4
loop_
 _symmetry_equiv_pos_site_id
 _symmetry_equiv_pos_as_xyz
  1  'x, y, z'
loop_
 _atom_site_type_symbol
 _atom_site_label
 _atom_site_symmetry_multiplicity
 _atom_site_fract_x
 _atom_site_fract_y
 _atom_site_fract_z
 _atom_site_occupancy
  Li  Li0  1  0.74911046  0.15081756  0.14439094  1
  Li  Li1  1  0.25089025  0.65083223  0.35563470  1
  Li  Li2  1  0.75089072  0.84916958  0.64437076  1
  Li  Li3  1  0.24911078  0.34918190  0.85560414  1
  I  I4  1  0.74924560  0.18043566  0.76841825  1
  I  I5  1  0.25075598  0.68043602  0.73152710  1
  I  I6  1  0.75075529  -0.18043508  0.26846607  1
  I  I7  1  0.24924090  0.31956214  0.23158804  1
