# generated using pymatgen
data_KI
_symmetry_space_group_name_H-M   'P 1'
_cell_length_a   8.58762415
_cell_length_b   4.99035722
_cell_length_c   8.68678655
_cell_angle_alpha   90.01270930
_cell_angle_beta   89.99927281
_cell_angle_gamma   90.00319838
_symmetry_Int_Tables_number   1
_chemical_formula_structural   KI
_chemical_formula_sum   'K4 I4'
_cell_volume   372.27493976
_cell_formula_units_Z   4
loop_
 _symmetry_equiv_pos_site_id
 _symmetry_equiv_pos_as_xyz
  1  'x, y, z'
loop_
 _atom_site_type_symbol
 _atom_site_label
 _atom_site_symmetry_multiplicity
 _atom_site_fract_x
 _atom_site_fract_y
 _atom_site_fract_z
 _atom_site_occupancy
  K  K0  1  0.24964688  -0.25570779  0.20792865  1
  K  K1  1  0.74964409  0.25569094  0.20792668  1
  K  K2  1  0.75035495  0.25568593  0.70792700  1
  K  K3  1  0.25035407  -0.25571301  0.70792845  1
  I  I4  1  0.91576736  0.75517623  0.45792555  1
  I  I5  1  0.41576336  0.24484038  0.45791426  1
  I  I6  1  0.08423691  0.24484609  0.95791959  1
  I  I7  1  0.58423238  0.75518122  0.95792018  1
