# generated using pymatgen
data_KI
_symmetry_space_group_name_H-M   'P 1'
_cell_length_a   7.16794096
_cell_length_b   10.11621303
_cell_length_c   8.74699925
_cell_angle_alpha   89.99905437
_cell_angle_beta   35.57441531
_cell_angle_gamma   89.99909395
_symmetry_Int_Tables_number   1
_chemical_formula_structural   KI
_chemical_formula_sum   'K4 I4'
_cell_volume   368.99051905
_cell_formula_units_Z   4
loop_
 _symmetry_equiv_pos_site_id
 _symmetry_equiv_pos_as_xyz
  1  'x, y, z'
loop_
 _atom_site_type_symbol
 _atom_site_label
 _atom_site_symmetry_multiplicity
 _atom_site_fract_x
 _atom_site_fract_y
 _atom_site_fract_z
 _atom_site_occupancy
  K  K0  1  0.00076021  0.87473723  0.75076871  1
  K  K1  1  -0.00076054  0.37473732  0.74923148  1
  K  K2  1  -0.00076022  0.12526278  0.24923129  1
  K  K3  1  0.00076053  0.62526268  0.25076852  1
  I  I4  1  0.50117926  0.62460203  0.24943930  1
  I  I5  1  0.49882067  0.12460191  0.25056086  1
  I  I6  1  0.49882074  0.37539797  0.75056069  1
  I  I7  1  0.50117933  0.87539809  0.74943914  1
