# generated using pymatgen
data_LiI
_symmetry_space_group_name_H-M   'P 1'
_cell_length_a   4.23407316
_cell_length_b   7.33966986
_cell_length_c   6.98047602
_cell_angle_alpha   90.00055961
_cell_angle_beta   89.99991828
_cell_angle_gamma   89.99982730
_symmetry_Int_Tables_number   1
_chemical_formula_structural   LiI
_chemical_formula_sum   'Li4 I4'
_cell_volume   216.93015316
_cell_formula_units_Z   4
loop_
 _symmetry_equiv_pos_site_id
 _symmetry_equiv_pos_as_xyz
  1  'x, y, z'
loop_
 _atom_site_type_symbol
 _atom_site_label
 _atom_site_symmetry_multiplicity
 _atom_site_fract_x
 _atom_site_fract_y
 _atom_site_fract_z
 _atom_site_occupancy
  Li  Li0  1  0.25092152  0.00141638  0.00152410  1
  Li  Li1  1  0.74908445  0.50141941  0.49848530  1
  Li  Li2  1  0.24907484  0.99858773  0.50152620  1
  Li  Li3  1  0.75091014  0.49857766  -0.00151412  1
  I  I4  1  0.24878594  0.66641464  0.24965594  1
  I  I5  1  0.75121053  0.16641656  0.25033313  1
  I  I6  1  0.25122038  0.33358350  0.74965626  1
  I  I7  1  0.74879219  0.83358411  0.75033320  1
