# generated using pymatgen
data_LiBr
_symmetry_space_group_name_H-M   'P 1'
_cell_length_a   3.95609941
_cell_length_b   3.95424098
_cell_length_c   13.03589356
_cell_angle_alpha   89.99906023
_cell_angle_beta   89.99976934
_cell_angle_gamma   90.00467171
_symmetry_Int_Tables_number   1
_chemical_formula_structural   LiBr
_chemical_formula_sum   'Li4 Br4'
_cell_volume   203.92531060
_cell_formula_units_Z   4
loop_
 _symmetry_equiv_pos_site_id
 _symmetry_equiv_pos_as_xyz
  1  'x, y, z'
loop_
 _atom_site_type_symbol
 _atom_site_label
 _atom_site_symmetry_multiplicity
 _atom_site_fract_x
 _atom_site_fract_y
 _atom_site_fract_z
 _atom_site_occupancy
  Li  Li0  1  0.00142368  0.00035703  0.18103907  1
  Li  Li1  1  0.00036911  0.99856901  0.93109063  1
  Li  Li2  1  0.99856127  -0.00035694  0.68105138  1
  Li  Li3  1  -0.00037195  0.00143958  0.43107204  1
  Br  Br4  1  0.50012274  -0.00041436  0.30609367  1
  Br  Br5  1  -0.00042540  0.49988554  0.05608449  1
  Br  Br6  1  0.49987754  0.00041264  0.80607714  1
  Br  Br7  1  0.00044302  0.50010750  0.55608687  1
