# generated using pymatgen
data_LiI
_symmetry_space_group_name_H-M   'P 1'
_cell_length_a   4.12006815
_cell_length_b   15.54154282
_cell_length_c   4.12067799
_cell_angle_alpha   90.00018272
_cell_angle_beta   90.00039402
_cell_angle_gamma   90.00000129
_symmetry_Int_Tables_number   1
_chemical_formula_structural   LiI
_chemical_formula_sum   'Li4 I4'
_cell_volume   263.85614177
_cell_formula_units_Z   4
loop_
 _symmetry_equiv_pos_site_id
 _symmetry_equiv_pos_as_xyz
  1  'x, y, z'
loop_
 _atom_site_type_symbol
 _atom_site_label
 _atom_site_symmetry_multiplicity
 _atom_site_fract_x
 _atom_site_fract_y
 _atom_site_fract_z
 _atom_site_occupancy
  Li  Li0  1  0.21673613  0.67524057  0.74947489  1
  Li  Li1  1  0.78326393  0.17524050  0.75052151  1
  Li  Li2  1  0.28326409  0.32475944  0.24947764  1
  Li  Li3  1  0.71673599  0.82475943  0.25052596  1
  I  I4  1  0.28289501  0.14308888  0.24882801  1
  I  I5  1  0.71710489  0.64308894  0.25116929  1
  I  I6  1  0.21710491  0.85691111  0.74882574  1
  I  I7  1  0.78289505  0.35691112  0.75117697  1
