# generated using pymatgen
data_LiBr
_symmetry_space_group_name_H-M   'P 1'
_cell_length_a   14.41251412
_cell_length_b   14.41250794
_cell_length_c   14.41250889
_cell_angle_alpha   89.99994110
_cell_angle_beta   90.00072228
_cell_angle_gamma   90.00038637
_symmetry_Int_Tables_number   1
_chemical_formula_structural   LiBr
_chemical_formula_sum   'Li48 Br48'
_cell_volume   2993.77318158
_cell_formula_units_Z   48
loop_
 _symmetry_equiv_pos_site_id
 _symmetry_equiv_pos_as_xyz
  1  'x, y, z'
loop_
 _atom_site_type_symbol
 _atom_site_label
 _atom_site_symmetry_multiplicity
 _atom_site_fract_x
 _atom_site_fract_y
 _atom_site_fract_z
 _atom_site_occupancy
  Li  Li0  1  0.12590888  0.27839994  0.96969945  1
  Li  Li1  1  0.52840069  0.37591050  0.21969621  1
  Li  Li2  1  0.62591159  0.22159844  0.03030629  1
  Li  Li3  1  0.47159853  0.12409078  0.21969830  1
  Li  Li4  1  0.37409122  0.27839997  0.03030229  1
  Li  Li5  1  0.28030104  0.52840229  0.62409336  1
  Li  Li6  1  0.28030535  0.47159625  0.87591140  1
  Li  Li7  1  -0.02840231  0.37591115  0.78030589  1
  Li  Li8  1  0.62590934  0.77839976  0.46969841  1
  Li  Li9  1  0.02840188  0.87591094  0.71969551  1
  Li  Li10  1  0.96969574  0.87409051  0.22159708  1
  Li  Li11  1  0.12408847  0.21969441  0.47159770  1
  Li  Li12  1  0.03030613  0.62591166  0.22159934  1
  Li  Li13  1  0.87591091  0.71969553  0.02840052  1
  Li  Li14  1  0.12409015  0.78030394  0.02840139  1
  Li  Li15  1  0.46969535  0.62591088  0.77839978  1
  Li  Li16  1  0.87591154  0.28030540  0.47159907  1
  Li  Li17  1  0.37591038  0.78030294  -0.02840217  1
  Li  Li18  1  0.03030114  0.37409137  0.27840139  1
  Li  Li19  1  0.52840194  0.62409101  0.28030220  1
  Li  Li20  1  0.27840125  0.96969550  0.12591071  1
  Li  Li21  1  0.72159805  0.46969652  0.37408902  1
  Li  Li22  1  0.71969822  0.02840131  0.87590928  1
  Li  Li23  1  0.77840010  0.53030342  0.87409058  1
  Li  Li24  1  0.21969552  0.47159814  0.12408721  1
  Li  Li25  1  0.72159865  0.53030516  0.12591166  1
  Li  Li26  1  0.53030248  0.87409106  0.77840142  1
  Li  Li27  1  0.02840261  0.12409050  0.78030307  1
  Li  Li28  1  0.37408864  0.72159819  0.46969250  1
  Li  Li29  1  0.12591155  0.72159800  0.53030624  1
  Li  Li30  1  -0.02840331  0.62409065  0.71969585  1
  Li  Li31  1  0.87409121  0.77840075  0.53030122  1
  Li  Li32  1  0.78030112  0.02839956  0.12409176  1
  Li  Li33  1  0.78030523  -0.02840129  0.37591198  1
  Li  Li34  1  0.22159941  0.96969739  0.87408861  1
  Li  Li35  1  0.21969815  0.52839960  0.37590951  1
  Li  Li36  1  0.87408840  0.22159742  0.96969445  1
  Li  Li37  1  0.47159933  0.87591094  0.28030299  1
  Li  Li38  1  0.27840219  0.03030434  0.37409097  1
  Li  Li39  1  0.71969622  -0.02840335  0.62408854  1
  Li  Li40  1  0.22159951  0.03030483  0.62591112  1
  Li  Li41  1  0.77840007  0.46969586  0.62590997  1
  Li  Li42  1  0.62409076  0.28030176  0.52840110  1
  Li  Li43  1  0.53030653  0.12591115  0.72159873  1
  Li  Li44  1  0.37590921  0.21969878  0.52840110  1
  Li  Li45  1  0.46969536  0.37408972  0.72159768  1
  Li  Li46  1  0.62408892  0.71969637  -0.02840207  1
  Li  Li47  1  0.96969648  0.12590972  0.27840093  1
  Br  Br48  1  0.65177593  0.87270603  0.89887407  1
  Br  Br49  1  0.12270509  0.90177615  0.14887478  1
  Br  Br50  1  0.15177723  0.62729495  0.10112639  1
  Br  Br51  1  0.87729583  0.59822382  0.14887407  1
  Br  Br52  1  0.84822327  0.87270544  0.10112343  1
  Br  Br53  1  0.35112564  0.12270530  0.09822485  1
  Br  Br54  1  0.35112665  0.87729482  0.40177456  1
  Br  Br55  1  0.37729447  0.90177690  0.85112575  1
  Br  Br56  1  0.15177403  0.37270479  0.39887493  1
  Br  Br57  1  0.62270479  0.40177458  0.64887437  1
  Br  Br58  1  0.89887339  0.34822440  0.62729544  1
  Br  Br59  1  0.59822690  0.14887425  0.87729631  1
  Br  Br60  1  0.10112677  0.15177662  0.62729468  1
  Br  Br61  1  0.40177328  0.64887577  0.62270373  1
  Br  Br62  1  0.59822204  0.85112510  0.62270650  1
  Br  Br63  1  0.39887474  0.15177805  0.37270668  1
  Br  Br64  1  0.40177827  0.35112532  0.87729361  1
  Br  Br65  1  0.90177820  0.85112726  0.37729309  1
  Br  Br66  1  0.10112677  0.84822388  0.87270520  1
  Br  Br67  1  0.12270575  0.09822194  0.35112582  1
  Br  Br68  1  0.87270538  0.89887237  0.65177437  1
  Br  Br69  1  0.12729529  0.39887226  0.84822608  1
  Br  Br70  1  0.64887439  0.62270524  0.40177597  1
  Br  Br71  1  0.37270631  0.60112538  0.34822012  1
  Br  Br72  1  0.14887417  0.87729550  0.59822362  1
  Br  Br73  1  0.12729268  0.60112623  0.65177987  1
  Br  Br74  1  0.60112575  0.34822322  0.37270602  1
  Br  Br75  1  0.62270454  0.59822370  0.85112572  1
  Br  Br76  1  0.84822523  0.12729580  0.39887372  1
  Br  Br77  1  0.65177901  0.12729340  0.60112736  1
  Br  Br78  1  0.37729584  0.09822556  0.64887366  1
  Br  Br79  1  0.34822143  0.37270781  0.60112586  1
  Br  Br80  1  0.85112420  0.62270574  0.59822210  1
  Br  Br81  1  0.85112491  0.37729437  0.90177734  1
  Br  Br82  1  0.62729604  0.89887279  0.34822541  1
  Br  Br83  1  0.14887489  0.12270517  0.90177718  1
  Br  Br84  1  0.34822336  0.62729403  0.89887144  1
  Br  Br85  1  0.87729367  0.40177841  0.35112648  1
  Br  Br86  1  0.87270676  0.10112564  0.84822096  1
  Br  Br87  1  0.64887341  0.37729556  0.09822464  1
  Br  Br88  1  0.62729375  0.10112555  0.15177914  1
  Br  Br89  1  0.37270425  0.39887291  0.15177447  1
  Br  Br90  1  0.09822135  0.35112598  0.12270675  1
  Br  Br91  1  0.60112634  0.65177721  0.12729371  1
  Br  Br92  1  0.90177373  0.14887315  0.12270460  1
  Br  Br93  1  0.39887316  0.84822247  0.12729372  1
  Br  Br94  1  0.09822701  0.64887369  0.37729654  1
  Br  Br95  1  0.89887435  0.65177584  0.87270534  1
