# generated using pymatgen
data_LiI
_symmetry_space_group_name_H-M   'P 1'
_cell_length_a   10.26584665
_cell_length_b   7.08288863
_cell_length_c   7.08789894
_cell_angle_alpha   89.99847171
_cell_angle_beta   89.99975987
_cell_angle_gamma   90.00003119
_symmetry_Int_Tables_number   1
_chemical_formula_structural   LiI
_chemical_formula_sum   'Li8 I8'
_cell_volume   515.37423367
_cell_formula_units_Z   8
loop_
 _symmetry_equiv_pos_site_id
 _symmetry_equiv_pos_as_xyz
  1  'x, y, z'
loop_
 _atom_site_type_symbol
 _atom_site_label
 _atom_site_symmetry_multiplicity
 _atom_site_fract_x
 _atom_site_fract_y
 _atom_site_fract_z
 _atom_site_occupancy
  Li  Li0  1  0.13083339  0.15740905  0.35089215  1
  Li  Li1  1  0.63083565  0.84259477  0.85088427  1
  Li  Li2  1  0.36916702  0.65741992  0.35088916  1
  Li  Li3  1  -0.13083473  0.84259131  0.35088749  1
  Li  Li4  1  0.63083398  0.34258031  0.35089043  1
  Li  Li5  1  0.36916501  0.15740781  0.85088363  1
  Li  Li6  1  -0.13083718  0.34260330  0.85088181  1
  Li  Li7  1  0.13083662  0.65739813  0.85088623  1
  I  I8  1  0.87479553  0.22938856  0.47126832  1
  I  I9  1  0.37479467  0.77061171  -0.02873607  1
  I  I10  1  0.62520715  0.72938430  0.47126715  1
  I  I11  1  0.12520458  0.77060921  0.47126541  1
  I  I12  1  0.37479281  0.27061417  0.47126442  1
  I  I13  1  0.62520549  0.22938873  -0.02873275  1
  I  I14  1  0.12520378  0.27060682  -0.02873610  1
  I  I15  1  0.87479622  0.72939192  -0.02873323  1
