# generated using pymatgen
data_LiBr
_symmetry_space_group_name_H-M   'P 1'
_cell_length_a   6.60765651
_cell_length_b   6.60771092
_cell_length_c   3.95818832
_cell_angle_alpha   89.99960728
_cell_angle_beta   89.99807787
_cell_angle_gamma   120.00528724
_symmetry_Int_Tables_number   1
_chemical_formula_structural   LiBr
_chemical_formula_sum   'Li3 Br3'
_cell_volume   149.65886151
_cell_formula_units_Z   3
loop_
 _symmetry_equiv_pos_site_id
 _symmetry_equiv_pos_as_xyz
  1  'x, y, z'
loop_
 _atom_site_type_symbol
 _atom_site_label
 _atom_site_symmetry_multiplicity
 _atom_site_fract_x
 _atom_site_fract_y
 _atom_site_fract_z
 _atom_site_occupancy
  Li  Li0  1  0.94214924  0.27551262  0.63595846  1
  Li  Li1  1  0.72453354  0.66667349  0.96916624  1
  Li  Li2  1  0.33332797  0.05785268  0.30252632  1
  Br  Br3  1  0.33330123  0.30809010  0.80269270  1
  Br  Br4  1  0.69190936  0.02520760  0.13612803  1
  Br  Br5  1  -0.02522134  0.66666351  0.46933646  1
