# generated using pymatgen
data_KI
_symmetry_space_group_name_H-M   'P 1'
_cell_length_a   4.97318337
_cell_length_b   5.19027249
_cell_length_c   8.19759671
_cell_angle_alpha   89.99986610
_cell_angle_beta   121.01883764
_cell_angle_gamma   90.00020017
_symmetry_Int_Tables_number   1
_chemical_formula_structural   KI
_chemical_formula_sum   'K2 I2'
_cell_volume   181.33888827
_cell_formula_units_Z   2
loop_
 _symmetry_equiv_pos_site_id
 _symmetry_equiv_pos_as_xyz
  1  'x, y, z'
loop_
 _atom_site_type_symbol
 _atom_site_label
 _atom_site_symmetry_multiplicity
 _atom_site_fract_x
 _atom_site_fract_y
 _atom_site_fract_z
 _atom_site_occupancy
  K  K0  1  0.10114981  0.25108247  0.78392841  1
  K  K1  1  0.10114183  0.74892002  0.28392623  1
  I  I2  1  0.60188496  0.75052991  0.78334914  1
  I  I3  1  0.60188903  0.24946761  0.28335167  1
