# generated using pymatgen
data_NaI
_symmetry_space_group_name_H-M   'P 1'
_cell_length_a   7.74762302
_cell_length_b   4.56529052
_cell_length_c   7.87986689
_cell_angle_alpha   90.00015961
_cell_angle_beta   90.00002240
_cell_angle_gamma   90.00000025
_symmetry_Int_Tables_number   1
_chemical_formula_structural   NaI
_chemical_formula_sum   'Na4 I4'
_cell_volume   278.71207323
_cell_formula_units_Z   4
loop_
 _symmetry_equiv_pos_site_id
 _symmetry_equiv_pos_as_xyz
  1  'x, y, z'
loop_
 _atom_site_type_symbol
 _atom_site_label
 _atom_site_symmetry_multiplicity
 _atom_site_fract_x
 _atom_site_fract_y
 _atom_site_fract_z
 _atom_site_occupancy
  Na  Na0  1  0.50142453  0.74902661  -0.00002914  1
  Na  Na1  1  0.49857640  0.24902737  0.50003230  1
  Na  Na2  1  -0.00142391  0.25097262  0.49996980  1
  Na  Na3  1  0.00142482  0.75097344  0.00002707  1
  I  I4  1  0.25028825  0.25099332  0.16608026  1
  I  I5  1  0.74971081  0.75099070  0.33391932  1
  I  I6  1  0.24971095  0.74900920  0.66608054  1
  I  I7  1  0.75028814  0.24900673  0.83391985  1
