# generated using pymatgen
data_LiI
_symmetry_space_group_name_H-M   'P 1'
_cell_length_a   6.02988114
_cell_length_b   6.01810851
_cell_length_c   5.99038701
_cell_angle_alpha   90.00000113
_cell_angle_beta   89.86954035
_cell_angle_gamma   89.99999740
_symmetry_Int_Tables_number   1
_chemical_formula_structural   LiI
_chemical_formula_sum   'Li4 I4'
_cell_volume   217.38146973
_cell_formula_units_Z   4
loop_
 _symmetry_equiv_pos_site_id
 _symmetry_equiv_pos_as_xyz
  1  'x, y, z'
loop_
 _atom_site_type_symbol
 _atom_site_label
 _atom_site_symmetry_multiplicity
 _atom_site_fract_x
 _atom_site_fract_y
 _atom_site_fract_z
 _atom_site_occupancy
  Li  Li0  1  0.58036117  0.24947940  0.04176463  1
  Li  Li1  1  0.08035838  0.74948287  0.04175854  1
  Li  Li2  1  0.58036165  0.75052066  0.54176420  1
  Li  Li3  1  0.08035889  0.25051767  0.54175833  1
  I  I4  1  0.08318174  0.25004329  0.03885393  1
  I  I5  1  0.58318154  0.75004302  0.03885539  1
  I  I6  1  0.08318182  0.74995647  0.53885396  1
  I  I7  1  0.58318161  0.24995662  0.53885546  1
