# generated using pymatgen
data_LiBr
_symmetry_space_group_name_H-M   'P 1'
_cell_length_a   3.89159247
_cell_length_b   3.89298846
_cell_length_c   9.53793708
_cell_angle_alpha   89.99386945
_cell_angle_beta   89.97803878
_cell_angle_gamma   120.00978618
_symmetry_Int_Tables_number   1
_chemical_formula_structural   LiBr
_chemical_formula_sum   'Li3 Br3'
_cell_volume   125.12746986
_cell_formula_units_Z   3
loop_
 _symmetry_equiv_pos_site_id
 _symmetry_equiv_pos_as_xyz
  1  'x, y, z'
loop_
 _atom_site_type_symbol
 _atom_site_label
 _atom_site_symmetry_multiplicity
 _atom_site_fract_x
 _atom_site_fract_y
 _atom_site_fract_z
 _atom_site_occupancy
  Li  Li0  1  0.66685756  0.66539241  0.28963034  1
  Li  Li1  1  0.33467953  0.00159781  0.62305805  1
  Li  Li2  1  -0.00150245  0.33309713  0.95638254  1
  Br  Br3  1  0.00214165  0.33574322  0.45675750  1
  Br  Br4  1  0.66425153  0.66636383  0.79004588  1
  Br  Br5  1  0.33357217  -0.00219439  0.12331786  1
