# generated using pymatgen
data_NaI
_symmetry_space_group_name_H-M   'P 1'
_cell_length_a   7.75894658
_cell_length_b   7.86718694
_cell_length_c   4.55918435
_cell_angle_alpha   89.99841955
_cell_angle_beta   89.99827213
_cell_angle_gamma   90.00015391
_symmetry_Int_Tables_number   1
_chemical_formula_structural   NaI
_chemical_formula_sum   'Na4 I4'
_cell_volume   278.29755145
_cell_formula_units_Z   4
loop_
 _symmetry_equiv_pos_site_id
 _symmetry_equiv_pos_as_xyz
  1  'x, y, z'
loop_
 _atom_site_type_symbol
 _atom_site_label
 _atom_site_symmetry_multiplicity
 _atom_site_fract_x
 _atom_site_fract_y
 _atom_site_fract_z
 _atom_site_occupancy
  Na  Na0  1  0.24981171  0.74725427  0.49867946  1
  Na  Na1  1  0.75018804  0.24726008  0.00127590  1
  Na  Na2  1  0.25018963  0.25273973  -0.00131581  1
  Na  Na3  1  0.74981131  0.75274368  0.50136115  1
  I  I4  1  0.49872411  0.08390241  0.50047087  1
  I  I5  1  0.50127539  0.58390270  -0.00047571  1
  I  I6  1  0.00127549  0.91609859  0.00049992  1
  I  I7  1  -0.00127569  0.41609853  0.49950423  1
