# generated using pymatgen
data_LiI
_symmetry_space_group_name_H-M   'P 1'
_cell_length_a   9.04955072
_cell_length_b   8.03225501
_cell_length_c   7.57218303
_cell_angle_alpha   89.99988972
_cell_angle_beta   89.99907941
_cell_angle_gamma   89.99990060
_symmetry_Int_Tables_number   1
_chemical_formula_structural   LiI
_chemical_formula_sum   'Li8 I8'
_cell_volume   550.40910508
_cell_formula_units_Z   8
loop_
 _symmetry_equiv_pos_site_id
 _symmetry_equiv_pos_as_xyz
  1  'x, y, z'
loop_
 _atom_site_type_symbol
 _atom_site_label
 _atom_site_symmetry_multiplicity
 _atom_site_fract_x
 _atom_site_fract_y
 _atom_site_fract_z
 _atom_site_occupancy
  Li  Li0  1  0.86866288  0.58778358  0.65615357  1
  Li  Li1  1  0.86865984  0.91221536  0.15614740  1
  Li  Li2  1  0.36866153  0.91221749  0.34385537  1
  Li  Li3  1  0.63134148  0.41221443  0.15613965  1
  Li  Li4  1  0.13134001  0.08778757  0.84385739  1
  Li  Li5  1  0.63134090  0.08778678  0.65614469  1
  Li  Li6  1  0.36866046  0.58777978  0.84386044  1
  Li  Li7  1  0.13133722  0.41221206  0.34385075  1
  I  I8  1  0.36997283  0.91079495  0.71379849  1
  I  I9  1  0.36997297  0.58920397  0.21380042  1
  I  I10  1  0.86997240  0.58920113  0.28620215  1
  I  I11  1  0.13002645  0.08920304  0.21379601  1
  I  I12  1  0.63002518  0.41080216  0.78619730  1
  I  I13  1  0.13002827  0.41079693  0.71379520  1
  I  I14  1  0.86997339  0.91080105  0.78620395  1
  I  I15  1  0.63002417  0.08919971  0.28619721  1
