# generated using pymatgen
data_LiI
_symmetry_space_group_name_H-M   'P 1'
_cell_length_a   12.47999383
_cell_length_b   12.47998803
_cell_length_c   7.94463124
_cell_angle_alpha   90.00058121
_cell_angle_beta   89.99941604
_cell_angle_gamma   120.00236867
_symmetry_Int_Tables_number   1
_chemical_formula_structural   LiI
_chemical_formula_sum   'Li18 I18'
_cell_volume   1071.57493949
_cell_formula_units_Z   18
loop_
 _symmetry_equiv_pos_site_id
 _symmetry_equiv_pos_as_xyz
  1  'x, y, z'
loop_
 _atom_site_type_symbol
 _atom_site_label
 _atom_site_symmetry_multiplicity
 _atom_site_fract_x
 _atom_site_fract_y
 _atom_site_fract_z
 _atom_site_occupancy
  Li  Li0  1  0.49621730  0.59950159  0.93082753  1
  Li  Li1  1  0.49621657  0.89671493  0.43083727  1
  Li  Li2  1  0.73386495  0.17052965  0.09740287  1
  Li  Li3  1  0.43666493  0.26612974  0.09741595  1
  Li  Li4  1  0.06716073  0.22999362  0.26413333  1
  Li  Li5  1  0.40049601  0.89669631  0.93083473  1
  Li  Li6  1  0.43666139  0.17052585  0.59741542  1
  Li  Li7  1  0.73386944  0.56333598  0.59741625  1
  Li  Li8  1  0.10328287  0.50378293  0.93083952  1
  Li  Li9  1  0.10330315  0.59950414  0.43083573  1
  Li  Li10  1  0.82947099  0.26613588  0.59740146  1
  Li  Li11  1  0.82947260  0.56333694  0.09741202  1
  Li  Li12  1  0.76999879  0.83715375  0.26413848  1
  Li  Li13  1  0.77000505  0.93283989  0.76413270  1
  Li  Li14  1  0.40049790  0.50378120  0.43082899  1
  Li  Li15  1  0.06714908  0.83715557  0.76412112  1
  Li  Li16  1  0.16284498  0.93285056  0.26412301  1
  Li  Li17  1  0.16284796  0.23000450  0.76414186  1
  I  I18  1  0.59980586  0.48906950  0.27412025  1
  I  I19  1  0.59980248  0.11074032  0.77411856  1
  I  I20  1  0.84424421  0.06685250  0.44081300  1
  I  I21  1  0.22261026  0.15576103  0.44081211  1
  I  I22  1  0.17756280  0.44404930  0.60747354  1
  I  I23  1  0.51092734  0.11073409  0.27412201  1
  I  I24  1  0.22260184  0.06685208  0.94080975  1
  I  I25  1  0.84423906  0.77739029  0.94081081  1
  I  I26  1  0.88925977  0.40019807  0.27411743  1
  I  I27  1  0.88926590  0.48907324  0.77412032  1
  I  I28  1  0.93314747  0.15575599  0.94081357  1
  I  I29  1  0.93314781  0.77739798  0.44080907  1
  I  I30  1  0.55594617  0.73351607  0.60746985  1
  I  I31  1  0.55595134  0.82243704  0.10747270  1
  I  I32  1  0.51093053  0.40019408  0.77412069  1
  I  I33  1  0.17756619  0.73351728  0.10747638  1
  I  I34  1  0.26648339  0.82243472  0.60747552  1
  I  I35  1  0.26648289  0.44405338  0.10747016  1
