# generated using pymatgen
data_LiBr
_symmetry_space_group_name_H-M   'P 1'
_cell_length_a   4.30375772
_cell_length_b   7.45216930
_cell_length_c   13.86390894
_cell_angle_alpha   90.00397154
_cell_angle_beta   89.99873950
_cell_angle_gamma   90.00219581
_symmetry_Int_Tables_number   1
_chemical_formula_structural   LiBr
_chemical_formula_sum   'Li8 Br8'
_cell_volume   444.64787675
_cell_formula_units_Z   8
loop_
 _symmetry_equiv_pos_site_id
 _symmetry_equiv_pos_as_xyz
  1  'x, y, z'
loop_
 _atom_site_type_symbol
 _atom_site_label
 _atom_site_symmetry_multiplicity
 _atom_site_fract_x
 _atom_site_fract_y
 _atom_site_fract_z
 _atom_site_occupancy
  Li  Li0  1  0.50060962  0.66694714  0.07760853  1
  Li  Li1  1  0.50028307  0.83315407  0.57771162  1
  Li  Li2  1  0.00026912  0.83321930  0.92228926  1
  Li  Li3  1  -0.00025535  0.33320842  0.57772368  1
  Li  Li4  1  0.49940733  0.16685949  0.42237515  1
  Li  Li5  1  -0.00059379  0.16693442  0.07760485  1
  Li  Li6  1  0.00061100  0.66692381  0.42239158  1
  Li  Li7  1  0.49973348  0.33316909  0.92227387  1
  Br  Br8  1  -0.00075010  0.16661752  0.88855589  1
  Br  Br9  1  -0.00050368  0.33325474  0.38866259  1
  Br  Br10  1  0.49951378  0.33328534  0.11130565  1
  Br  Br11  1  0.50046751  0.83321923  0.38868761  1
  Br  Br12  1  0.00074122  0.66665377  0.61143207  1
  Br  Br13  1  0.50075142  0.66664965  0.88856743  1
  Br  Br14  1  0.49923174  0.16660143  0.61149308  1
  Br  Br15  1  0.00048364  0.83330258  0.11131715  1
