# generated using pymatgen
data_LiBr
_symmetry_space_group_name_H-M   'P 1'
_cell_length_a   5.51189573
_cell_length_b   5.51017714
_cell_length_c   5.48461926
_cell_angle_alpha   89.99974763
_cell_angle_beta   90.03429236
_cell_angle_gamma   89.99994988
_symmetry_Int_Tables_number   1
_chemical_formula_structural   LiBr
_chemical_formula_sum   'Li4 Br4'
_cell_volume   166.57620354
_cell_formula_units_Z   4
loop_
 _symmetry_equiv_pos_site_id
 _symmetry_equiv_pos_as_xyz
  1  'x, y, z'
loop_
 _atom_site_type_symbol
 _atom_site_label
 _atom_site_symmetry_multiplicity
 _atom_site_fract_x
 _atom_site_fract_y
 _atom_site_fract_z
 _atom_site_occupancy
  Li  Li0  1  -0.06312454  0.75425458  0.02920373  1
  Li  Li1  1  0.43687112  0.25423804  0.02920344  1
  Li  Li2  1  -0.06312489  0.24575436  0.52920422  1
  Li  Li3  1  0.43686698  0.74575413  0.52920469  1
  Br  Br4  1  0.43897626  0.75097319  0.02918954  1
  Br  Br5  1  0.93897761  0.25097267  0.02918979  1
  Br  Br6  1  0.43897610  0.24902445  0.52918951  1
  Br  Br7  1  0.93897667  0.74902858  0.52918982  1
