# generated using pymatgen
data_KCl
_symmetry_space_group_name_H-M   'P 1'
_cell_length_a   4.41731102
_cell_length_b   7.51769474
_cell_length_c   8.95899241
_cell_angle_alpha   89.99999196
_cell_angle_beta   119.40736788
_cell_angle_gamma   90.00002163
_symmetry_Int_Tables_number   1
_chemical_formula_structural   KCl
_chemical_formula_sum   'K4 Cl4'
_cell_volume   259.17619685
_cell_formula_units_Z   4
loop_
 _symmetry_equiv_pos_site_id
 _symmetry_equiv_pos_as_xyz
  1  'x, y, z'
loop_
 _atom_site_type_symbol
 _atom_site_label
 _atom_site_symmetry_multiplicity
 _atom_site_fract_x
 _atom_site_fract_y
 _atom_site_fract_z
 _atom_site_occupancy
  K  K0  1  0.49440883  0.08518043  0.11556805  1
  K  K1  1  -0.00559120  0.58518037  0.11556804  1
  K  K2  1  0.49440954  0.91481946  0.61556780  1
  K  K3  1  -0.00559066  0.41481963  0.61556771  1
  Cl  Cl4  1  0.24401103  0.24900863  0.36521928  1
  Cl  Cl5  1  0.74401137  0.74900827  0.36521921  1
  Cl  Cl6  1  0.24401591  0.75099149  0.86521812  1
  Cl  Cl7  1  0.74401595  0.25099172  0.86521781  1
