# generated using pymatgen
data_LiBr
_symmetry_space_group_name_H-M   'P 1'
_cell_length_a   7.22013713
_cell_length_b   4.17210730
_cell_length_c   8.32110273
_cell_angle_alpha   89.99879029
_cell_angle_beta   125.44372089
_cell_angle_gamma   90.00070957
_symmetry_Int_Tables_number   1
_chemical_formula_structural   LiBr
_chemical_formula_sum   'Li4 Br4'
_cell_volume   204.20755155
_cell_formula_units_Z   4
loop_
 _symmetry_equiv_pos_site_id
 _symmetry_equiv_pos_as_xyz
  1  'x, y, z'
loop_
 _atom_site_type_symbol
 _atom_site_label
 _atom_site_symmetry_multiplicity
 _atom_site_fract_x
 _atom_site_fract_y
 _atom_site_fract_z
 _atom_site_occupancy
  Li  Li0  1  0.02433366  0.50182959  0.18357988  1
  Li  Li1  1  0.52433478  0.00182847  0.18358355  1
  Li  Li2  1  0.02433056  0.49816884  0.68357837  1
  Li  Li3  1  0.52433086  -0.00182929  0.68358078  1
  Br  Br4  1  0.77376695  0.49874370  0.80741019  1
  Br  Br5  1  0.27376726  0.99874354  0.80741285  1
  Br  Br6  1  0.77376276  0.50125787  0.30741072  1
  Br  Br7  1  0.27376233  0.00125728  0.30741266  1
