# generated using pymatgen
data_KI
_symmetry_space_group_name_H-M   'P 1'
_cell_length_a   14.38211209
_cell_length_b   5.08870886
_cell_length_c   5.08008653
_cell_angle_alpha   90.00399584
_cell_angle_beta   90.00090511
_cell_angle_gamma   89.99705201
_symmetry_Int_Tables_number   1
_chemical_formula_structural   KI
_chemical_formula_sum   'K4 I4'
_cell_volume   371.79314774
_cell_formula_units_Z   4
loop_
 _symmetry_equiv_pos_site_id
 _symmetry_equiv_pos_as_xyz
  1  'x, y, z'
loop_
 _atom_site_type_symbol
 _atom_site_label
 _atom_site_symmetry_multiplicity
 _atom_site_fract_x
 _atom_site_fract_y
 _atom_site_fract_z
 _atom_site_occupancy
  K  K0  1  0.37497657  0.25069435  0.49662349  1
  K  K1  1  0.62502378  0.75070731  0.00338342  1
  K  K2  1  0.12502375  0.74929298  0.99661682  1
  K  K3  1  0.87497642  0.24930538  0.50337626  1
  I  I4  1  0.87514161  0.74884516  0.00277199  1
  I  I5  1  0.12485807  0.24885445  0.49723007  1
  I  I6  1  0.62485823  0.25114602  0.50277158  1
  I  I7  1  0.37514157  0.75115435  -0.00277363  1
