# generated using pymatgen
data_NaI
_symmetry_space_group_name_H-M   'P 1'
_cell_length_a   13.63032836
_cell_length_b   13.63023754
_cell_length_c   13.63038086
_cell_angle_alpha   90.00028441
_cell_angle_beta   89.99970501
_cell_angle_gamma   90.00003946
_symmetry_Int_Tables_number   1
_chemical_formula_structural   NaI
_chemical_formula_sum   'Na24 I24'
_cell_volume   2532.31503621
_cell_formula_units_Z   24
loop_
 _symmetry_equiv_pos_site_id
 _symmetry_equiv_pos_as_xyz
  1  'x, y, z'
loop_
 _atom_site_type_symbol
 _atom_site_label
 _atom_site_symmetry_multiplicity
 _atom_site_fract_x
 _atom_site_fract_y
 _atom_site_fract_z
 _atom_site_occupancy
  Na  Na0  1  0.65996193  0.08957684  0.87571225  1
  Na  Na1  1  0.62430203  0.34003494  0.58958913  1
  Na  Na2  1  0.87569962  0.34003710  0.41040926  1
  Na  Na3  1  0.34003187  0.41041602  0.87569554  1
  Na  Na4  1  0.62429112  0.65996719  0.91042677  1
  Na  Na5  1  0.15996952  0.41042195  0.12429863  1
  Na  Na6  1  0.84003947  0.08958609  0.12430007  1
  Na  Na7  1  0.65996769  0.91042392  0.62429500  1
  Na  Na8  1  0.34003800  0.58958509  0.62429736  1
  Na  Na9  1  0.84003319  0.91041448  0.37569312  1
  Na  Na10  1  0.12429260  0.15996739  0.41042724  1
  Na  Na11  1  0.15996343  0.58957912  0.37570852  1
  Na  Na12  1  0.12430391  0.84003535  0.08958869  1
  Na  Na13  1  0.37569695  0.84003762  0.91040610  1
  Na  Na14  1  0.37570865  0.15996501  0.58957727  1
  Na  Na15  1  0.87571086  0.65996474  0.08957457  1
  Na  Na16  1  0.91041727  0.62429831  0.65996551  1
  Na  Na17  1  0.41041737  0.12429987  0.15996747  1
  Na  Na18  1  0.41041656  0.87569994  0.34002421  1
  Na  Na19  1  0.91041649  0.37570083  0.84002701  1
  Na  Na20  1  0.58958280  0.37570183  0.15996484  1
  Na  Na21  1  0.08958019  0.87570345  0.65996284  1
  Na  Na22  1  0.08958028  0.12429688  0.84004517  1
  Na  Na23  1  0.58958249  0.62429781  0.34004285  1
  I  I24  1  0.15716469  0.09378077  0.62527009  1
  I  I25  1  0.87474030  0.84283534  0.59377350  1
  I  I26  1  0.62525876  0.84284060  0.40621619  1
  I  I27  1  0.84284198  0.40621680  0.62525578  1
  I  I28  1  0.87473650  0.15716499  -0.09378034  1
  I  I29  1  0.65715770  0.40621787  0.37474218  1
  I  I30  1  0.34283350  0.09377872  0.37473501  1
  I  I31  1  0.15715543  -0.09378307  0.87474073  1
  I  I32  1  0.84283313  0.59378064  0.87473364  1
  I  I33  1  0.34284262  -0.09378128  0.12525397  1
  I  I34  1  0.37473840  0.65716426  0.40621735  1
  I  I35  1  0.65716664  0.59377997  0.12526876  1
  I  I36  1  0.37474234  0.34283659  0.09377527  1
  I  I37  1  0.12525920  0.34283942  -0.09378020  1
  I  I38  1  0.12526308  0.65716206  0.59378748  1
  I  I39  1  0.62526294  0.15716040  0.09379085  1
  I  I40  1  -0.09378067  0.87473818  0.15715641  1
  I  I41  1  0.40621726  0.37473861  0.65715735  1
  I  I42  1  0.40621641  0.62525983  0.84283803  1
  I  I43  1  -0.09378117  0.12526021  0.34283970  1
  I  I44  1  0.59378141  0.12526341  0.65716903  1
  I  I45  1  0.09378292  0.62526258  0.15716673  1
  I  I46  1  0.09378164  0.37473597  0.34283782  1
  I  I47  1  0.59378070  0.87473538  0.84283528  1
