# generated using pymatgen
data_NaI
_symmetry_space_group_name_H-M   'P 1'
_cell_length_a   4.58814463
_cell_length_b   4.64403112
_cell_length_c   7.88043053
_cell_angle_alpha   89.99612687
_cell_angle_beta   124.41425971
_cell_angle_gamma   90.00011919
_symmetry_Int_Tables_number   1
_chemical_formula_structural   NaI
_chemical_formula_sum   'Na2 I2'
_cell_volume   138.52298076
_cell_formula_units_Z   2
loop_
 _symmetry_equiv_pos_site_id
 _symmetry_equiv_pos_as_xyz
  1  'x, y, z'
loop_
 _atom_site_type_symbol
 _atom_site_label
 _atom_site_symmetry_multiplicity
 _atom_site_fract_x
 _atom_site_fract_y
 _atom_site_fract_z
 _atom_site_occupancy
  Na  Na0  1  0.24467734  0.24603249  0.34517753  1
  Na  Na1  1  0.24468384  0.75397403  0.84517938  1
  I  I2  1  0.74663969  0.74708790  0.34562458  1
  I  I3  1  0.74665398  0.25290557  0.84562663  1
