# generated using pymatgen
data_NaI
_symmetry_space_group_name_H-M   'P 1'
_cell_length_a   4.62098408
_cell_length_b   6.52644606
_cell_length_c   9.21672160
_cell_angle_alpha   89.99424878
_cell_angle_beta   90.00016294
_cell_angle_gamma   89.99995153
_symmetry_Int_Tables_number   1
_chemical_formula_structural   NaI
_chemical_formula_sum   'Na4 I4'
_cell_volume   277.96344931
_cell_formula_units_Z   4
loop_
 _symmetry_equiv_pos_site_id
 _symmetry_equiv_pos_as_xyz
  1  'x, y, z'
loop_
 _atom_site_type_symbol
 _atom_site_label
 _atom_site_symmetry_multiplicity
 _atom_site_fract_x
 _atom_site_fract_y
 _atom_site_fract_z
 _atom_site_occupancy
  Na  Na0  1  0.75179300  -0.00084536  0.62370340  1
  Na  Na1  1  0.24822812  0.49917575  0.87630975  1
  Na  Na2  1  0.74822945  0.00082500  0.12369419  1
  Na  Na3  1  0.25179199  0.50084625  0.37629338  1
  I  I4  1  0.75086838  0.49941041  0.62579783  1
  I  I5  1  0.24911068  -0.00056655  0.87422476  1
  I  I6  1  0.74910891  0.50056562  0.12577350  1
  I  I7  1  0.25086948  0.00058887  0.37420318  1
