# generated using pymatgen
data_KBr
_symmetry_space_group_name_H-M   'P 1'
_cell_length_a   4.62611568
_cell_length_b   7.98407712
_cell_length_c   8.21797526
_cell_angle_alpha   89.99999820
_cell_angle_beta   90.04682294
_cell_angle_gamma   89.99999919
_symmetry_Int_Tables_number   1
_chemical_formula_structural   KBr
_chemical_formula_sum   'K4 Br4'
_cell_volume   303.53298714
_cell_formula_units_Z   4
loop_
 _symmetry_equiv_pos_site_id
 _symmetry_equiv_pos_as_xyz
  1  'x, y, z'
loop_
 _atom_site_type_symbol
 _atom_site_label
 _atom_site_symmetry_multiplicity
 _atom_site_fract_x
 _atom_site_fract_y
 _atom_site_fract_z
 _atom_site_occupancy
  K  K0  1  0.72540972  0.83487901  0.52003597  1
  K  K1  1  0.22541041  0.33487911  0.52003597  1
  K  K2  1  0.72540985  0.16512102  0.02003589  1
  K  K3  1  0.22541040  0.66512090  0.02003598  1
  Br  Br4  1  0.22541731  0.00092803  0.76963916  1
  Br  Br5  1  0.72541651  0.50092762  0.76963883  1
  Br  Br6  1  0.22541728  -0.00092811  0.26963902  1
  Br  Br7  1  0.72541647  0.49907242  0.26963881  1
