# generated using pymatgen
data_LiBr
_symmetry_space_group_name_H-M   'P 1'
_cell_length_a   6.45048135
_cell_length_b   6.66473179
_cell_length_c   3.86198154
_cell_angle_alpha   90.00015268
_cell_angle_beta   90.00010007
_cell_angle_gamma   89.99999719
_symmetry_Int_Tables_number   1
_chemical_formula_structural   LiBr
_chemical_formula_sum   'Li4 Br4'
_cell_volume   166.02939815
_cell_formula_units_Z   4
loop_
 _symmetry_equiv_pos_site_id
 _symmetry_equiv_pos_as_xyz
  1  'x, y, z'
loop_
 _atom_site_type_symbol
 _atom_site_label
 _atom_site_symmetry_multiplicity
 _atom_site_fract_x
 _atom_site_fract_y
 _atom_site_fract_z
 _atom_site_occupancy
  Li  Li0  1  0.99867319  0.24889704  0.77929726  1
  Li  Li1  1  0.49867266  0.25110304  0.77930550  1
  Li  Li2  1  0.00132725  0.75110352  0.27929511  1
  Li  Li3  1  0.50132676  0.74889649  0.27929017  1
  Br  Br4  1  0.24977449  0.91679096  0.77954672  1
  Br  Br5  1  0.74977480  0.58320898  0.77954820  1
  Br  Br6  1  0.75022540  0.08320877  0.27954817  1
  Br  Br7  1  0.25022546  0.41679121  0.27954667  1
