# generated using pymatgen
data_NaBr
_symmetry_space_group_name_H-M   'P 1'
_cell_length_a   7.29083646
_cell_length_b   4.19556974
_cell_length_c   7.20016661
_cell_angle_alpha   90.00023212
_cell_angle_beta   90.00000183
_cell_angle_gamma   89.99999961
_symmetry_Int_Tables_number   1
_chemical_formula_structural   NaBr
_chemical_formula_sum   'Na4 Br4'
_cell_volume   220.24742884
_cell_formula_units_Z   4
loop_
 _symmetry_equiv_pos_site_id
 _symmetry_equiv_pos_as_xyz
  1  'x, y, z'
loop_
 _atom_site_type_symbol
 _atom_site_label
 _atom_site_symmetry_multiplicity
 _atom_site_fract_x
 _atom_site_fract_y
 _atom_site_fract_z
 _atom_site_occupancy
  Na  Na0  1  0.24946754  0.24698029  0.76228311  1
  Na  Na1  1  0.74946743  0.75301997  0.76227979  1
  Na  Na2  1  0.75053255  0.75302013  0.26228028  1
  Na  Na3  1  0.25053243  0.24698023  0.26228359  1
  Br  Br4  1  0.41689865  0.74733785  0.01260894  1
  Br  Br5  1  0.91689674  0.25266164  0.01260880  1
  Br  Br6  1  0.58310327  0.25266190  0.51260879  1
  Br  Br7  1  0.08310139  0.74733799  0.51260899  1
