# generated using pymatgen
data_LiI
_symmetry_space_group_name_H-M   'P 1'
_cell_length_a   7.75905883
_cell_length_b   7.75905419
_cell_length_c   9.43984047
_cell_angle_alpha   90.00008992
_cell_angle_beta   90.00005747
_cell_angle_gamma   120.00827305
_symmetry_Int_Tables_number   1
_chemical_formula_structural   LiI
_chemical_formula_sum   'Li6 I6'
_cell_volume   492.12667496
_cell_formula_units_Z   6
loop_
 _symmetry_equiv_pos_site_id
 _symmetry_equiv_pos_as_xyz
  1  'x, y, z'
loop_
 _atom_site_type_symbol
 _atom_site_label
 _atom_site_symmetry_multiplicity
 _atom_site_fract_x
 _atom_site_fract_y
 _atom_site_fract_z
 _atom_site_occupancy
  Li  Li0  1  0.61026353  0.39358931  0.15719135  1
  Li  Li1  1  0.21669052  0.61023596  0.99055126  1
  Li  Li2  1  0.78330934  0.38976447  0.49055062  1
  Li  Li3  1  0.39356279  0.78332008  0.32385965  1
  Li  Li4  1  0.60643885  0.21668148  0.82385934  1
  Li  Li5  1  0.38973480  0.60640802  0.65719085  1
  I  I6  1  0.49775490  -0.00117894  0.57477538  1
  I  I7  1  0.49902417  0.49785351  0.40809333  1
  I  I8  1  0.50097667  0.50214673  0.90809339  1
  I  I9  1  -0.00117345  0.50105457  0.74145468  1
  I  I10  1  0.00117275  0.49894757  0.24145456  1
  I  I11  1  0.50224513  0.00117723  0.07477469  1
