# generated using pymatgen
data_LiBr
_symmetry_space_group_name_H-M   'P 1'
_cell_length_a   10.56529641
_cell_length_b   10.56529446
_cell_length_c   8.44224052
_cell_angle_alpha   89.99533894
_cell_angle_beta   90.00466572
_cell_angle_gamma   120.00164953
_symmetry_Int_Tables_number   1
_chemical_formula_structural   LiBr
_chemical_formula_sum   'Li18 Br18'
_cell_volume   816.10196398
_cell_formula_units_Z   18
loop_
 _symmetry_equiv_pos_site_id
 _symmetry_equiv_pos_as_xyz
  1  'x, y, z'
loop_
 _atom_site_type_symbol
 _atom_site_label
 _atom_site_symmetry_multiplicity
 _atom_site_fract_x
 _atom_site_fract_y
 _atom_site_fract_z
 _atom_site_occupancy
  Li  Li0  1  0.04588398  0.58513028  0.57877423  1
  Li  Li1  1  0.04588102  0.46078824  0.07878572  1
  Li  Li2  1  0.74821726  0.62079385  0.74541192  1
  Li  Li3  1  0.87255953  0.25176899  0.74538773  1
  Li  Li4  1  0.08156718  0.79409963  0.91204013  1
  Li  Li5  1  0.41488312  0.46077379  0.57875121  1
  Li  Li6  1  0.87254667  0.62080187  0.24541972  1
  Li  Li7  1  0.74823081  0.12744098  0.24538661  1
  Li  Li8  1  0.53921198  0.95412050  0.57878604  1
  Li  Li9  1  0.53922631  0.58511786  0.07875269  1
  Li  Li10  1  0.37920680  0.25178352  0.24541107  1
  Li  Li11  1  0.37919819  0.12745322  0.74541950  1
  Li  Li12  1  0.20588577  0.28747920  0.91206621  1
  Li  Li13  1  0.20590074  0.91843274  0.41204047  1
  Li  Li14  1  0.41486893  0.95411412  0.07877562  1
  Li  Li15  1  0.08155428  0.28747317  0.41206426  1
  Li  Li16  1  0.71252765  0.91844645  0.91206360  1
  Li  Li17  1  0.71251893  0.79411393  0.41206568  1
  Br  Br18  1  0.26270601  0.43210966  0.17279519  1
  Br  Br19  1  0.26271181  0.83058895  0.67281861  1
  Br  Br20  1  0.90122016  0.40396681  0.33949798  1
  Br  Br21  1  0.50274153  0.09874154  0.33950580  1
  Br  Br22  1  0.23458305  0.16392673  0.50613744  1
  Br  Br23  1  0.56792369  0.83059776  0.17280246  1
  Br  Br24  1  0.50275000  0.40396097  0.83951914  1
  Br  Br25  1  0.90125877  0.49725836  0.83950551  1
  Br  Br26  1  0.16941099  0.73728787  0.17281857  1
  Br  Br27  1  0.16940242  0.43207651  0.67280239  1
  Br  Br28  1  0.59603309  0.09877953  0.83949896  1
  Br  Br29  1  0.59603914  0.49724976  0.33951907  1
  Br  Br30  1  0.83608136  0.07061730  0.50614980  1
  Br  Br31  1  0.83607263  0.76541675  0.00613792  1
  Br  Br32  1  0.56789008  0.73729420  0.67279472  1
  Br  Br33  1  0.23454519  0.07062188  0.00612941  1
  Br  Br34  1  0.92937772  0.76545463  0.50612970  1
  Br  Br35  1  0.92938319  0.16391846  0.00615000  1
