# generated using pymatgen
data_NaI
_symmetry_space_group_name_H-M   'P 1'
_cell_length_a   4.58476101
_cell_length_b   8.27359866
_cell_length_c   9.30965022
_cell_angle_alpha   90.00149223
_cell_angle_beta   122.04851021
_cell_angle_gamma   89.99768080
_symmetry_Int_Tables_number   1
_chemical_formula_structural   NaI
_chemical_formula_sum   'Na4 I4'
_cell_volume   299.31950415
_cell_formula_units_Z   4
loop_
 _symmetry_equiv_pos_site_id
 _symmetry_equiv_pos_as_xyz
  1  'x, y, z'
loop_
 _atom_site_type_symbol
 _atom_site_label
 _atom_site_symmetry_multiplicity
 _atom_site_fract_x
 _atom_site_fract_y
 _atom_site_fract_z
 _atom_site_occupancy
  Na  Na0  1  0.36375484  0.73882454  0.56841537  1
  Na  Na1  1  0.63622935  0.23881901  0.93158522  1
  Na  Na2  1  0.63624429  0.26117564  0.43158479  1
  Na  Na3  1  0.36377143  0.76118097  0.06841467  1
  I  I4  1  0.05757731  0.52959595  0.74534412  1
  I  I5  1  -0.05758114  0.02959789  0.75465303  1
  I  I6  1  -0.05757854  0.47040399  0.25465597  1
  I  I7  1  0.05758246  0.97040202  0.24534683  1
