# generated using pymatgen
data_LiI
_symmetry_space_group_name_H-M   'P 1'
_cell_length_a   7.63034993
_cell_length_b   9.13062118
_cell_length_c   8.08142545
_cell_angle_alpha   90.00169887
_cell_angle_beta   89.99985408
_cell_angle_gamma   89.99905202
_symmetry_Int_Tables_number   1
_chemical_formula_structural   LiI
_chemical_formula_sum   'Li8 I8'
_cell_volume   563.03157421
_cell_formula_units_Z   8
loop_
 _symmetry_equiv_pos_site_id
 _symmetry_equiv_pos_as_xyz
  1  'x, y, z'
loop_
 _atom_site_type_symbol
 _atom_site_label
 _atom_site_symmetry_multiplicity
 _atom_site_fract_x
 _atom_site_fract_y
 _atom_site_fract_z
 _atom_site_occupancy
  Li  Li0  1  0.35688690  0.86373290  0.57707972  1
  Li  Li1  1  0.35690817  0.13628053  0.07713524  1
  Li  Li2  1  0.85687188  0.63629362  0.42281428  1
  Li  Li3  1  0.14312703  0.63629561  0.07712108  1
  Li  Li4  1  0.64313143  0.86373243  0.92298562  1
  Li  Li5  1  0.14309804  0.36374751  0.57703083  1
  Li  Li6  1  0.85690614  0.36375017  0.92299258  1
  Li  Li7  1  0.64308324  0.13626976  0.42287705  1
  I  I8  1  0.72467357  0.87697476  0.58731447  1
  I  I9  1  0.72467165  0.12300177  0.08728565  1
  I  I10  1  0.22469959  0.62300107  0.41268848  1
  I  I11  1  0.77529428  0.62300887  0.08734536  1
  I  I12  1  0.27531563  0.87696805  0.91265420  1
  I  I13  1  0.77534707  0.37697360  0.58733046  1
  I  I14  1  0.22466020  0.37696018  0.91268996  1
  I  I15  1  0.27532517  0.12300918  0.41265503  1
