# generated using pymatgen
data_Na2O2
_symmetry_space_group_name_H-M   'P 1'
_cell_length_a   7.27557970
_cell_length_b   6.22801769
_cell_length_c   9.59600054
_cell_angle_alpha   90.38077373
_cell_angle_beta   98.38243056
_cell_angle_gamma   90.04756541
_symmetry_Int_Tables_number   1
_chemical_formula_structural   Na2O2
_chemical_formula_sum   'Na16 O16'
_cell_volume   430.16285168
_cell_formula_units_Z   8
loop_
 _symmetry_equiv_pos_site_id
 _symmetry_equiv_pos_as_xyz
  1  'x, y, z'
loop_
 _atom_site_type_symbol
 _atom_site_label
 _atom_site_symmetry_multiplicity
 _atom_site_fract_x
 _atom_site_fract_y
 _atom_site_fract_z
 _atom_site_occupancy
  Na  Na0  1  0.23607517  0.49964348  0.75509408  1
  Na  Na1  1  0.00027941  0.24122858  -0.00059578  1
  Na  Na2  1  0.76370164  0.49945076  0.24491121  1
  Na  Na3  1  0.76368988  0.49949182  0.74487182  1
  Na  Na4  1  -0.00038616  0.75998501  0.00022038  1
  Na  Na5  1  0.50064534  0.74120204  -0.00128726  1
  Na  Na6  1  0.49946046  0.25998511  0.00062752  1
  Na  Na7  1  0.00010846  0.24100203  0.49946921  1
  Na  Na8  1  -0.00002734  0.75959172  0.50018515  1
  Na  Na9  1  0.26392862  -0.00050617  0.24428628  1
  Na  Na10  1  0.50012907  0.25985146  0.50040574  1
  Na  Na11  1  0.73606616  -0.00016153  0.25471569  1
  Na  Na12  1  0.49987815  0.74086062  0.49892118  1
  Na  Na13  1  0.26395012  -0.00079469  0.74430547  1
  Na  Na14  1  0.73615597  -0.00034883  0.75473112  1
  Na  Na15  1  0.23608110  0.49965776  0.25517062  1
  O  O16  1  0.50040525  0.28105608  0.25091512  1
  O  O17  1  0.75587190  0.50036988  0.49296731  1
  O  O18  1  0.50047164  0.28079851  0.75089137  1
  O  O19  1  0.49922686  0.71775005  0.24839159  1
  O  O20  1  0.24485421  0.50063757  0.50742665  1
  O  O21  1  0.74434530  0.00066013  0.50681793  1
  O  O22  1  0.25526225  0.00059476  0.49205994  1
  O  O23  1  0.24485339  0.50245610  0.00740199  1
  O  O24  1  0.75576363  0.49903191  -0.00703246  1
  O  O25  1  -0.00006981  0.21776300  0.74931794  1
  O  O26  1  0.74435975  0.00190831  0.00681069  1
  O  O27  1  0.00021769  0.78071814  0.75045682  1
  O  O28  1  0.25529177  -0.00073046  -0.00794868  1
  O  O29  1  0.00024967  0.78104003  0.25048349  1
  O  O30  1  -0.00009773  0.21803429  0.24920680  1
  O  O31  1  0.49925816  0.71777256  0.74845227  1
