# generated using pymatgen
data_LiBr
_symmetry_space_group_name_H-M   'P 1'
_cell_length_a   3.86730804
_cell_length_b   6.63714230
_cell_length_c   6.46336197
_cell_angle_alpha   90.00009082
_cell_angle_beta   90.33647493
_cell_angle_gamma   90.00006158
_symmetry_Int_Tables_number   1
_chemical_formula_structural   LiBr
_chemical_formula_sum   'Li4 Br4'
_cell_volume   165.89789845
_cell_formula_units_Z   4
loop_
 _symmetry_equiv_pos_site_id
 _symmetry_equiv_pos_as_xyz
  1  'x, y, z'
loop_
 _atom_site_type_symbol
 _atom_site_label
 _atom_site_symmetry_multiplicity
 _atom_site_fract_x
 _atom_site_fract_y
 _atom_site_fract_z
 _atom_site_occupancy
  Li  Li0  1  0.40121737  0.49735412  0.74490335  1
  Li  Li1  1  0.90122029  0.99735436  0.74490261  1
  Li  Li2  1  0.40121857  0.50264554  0.24490257  1
  Li  Li3  1  0.90121960  0.00264563  0.24490197  1
  Br  Br4  1  0.90271030  0.33266595  -0.00506582  1
  Br  Br5  1  0.40271072  0.83266577  -0.00506564  1
  Br  Br6  1  0.90271009  0.66733439  0.49493474  1
  Br  Br7  1  0.40271050  0.16733424  0.49493467  1
