# generated using pymatgen
data_LiBr
_symmetry_space_group_name_H-M   'P 1'
_cell_length_a   10.97374446
_cell_length_b   10.97374565
_cell_length_c   10.06252028
_cell_angle_alpha   90.00376089
_cell_angle_beta   89.99622584
_cell_angle_gamma   120.00449228
_symmetry_Int_Tables_number   1
_chemical_formula_structural   LiBr
_chemical_formula_sum   'Li18 Br18'
_cell_volume   1049.36716506
_cell_formula_units_Z   18
loop_
 _symmetry_equiv_pos_site_id
 _symmetry_equiv_pos_as_xyz
  1  'x, y, z'
loop_
 _atom_site_type_symbol
 _atom_site_label
 _atom_site_symmetry_multiplicity
 _atom_site_fract_x
 _atom_site_fract_y
 _atom_site_fract_z
 _atom_site_occupancy
  Li  Li0  1  0.66405622  0.08707797  0.34283938  1
  Li  Li1  1  0.66406432  0.57697507  0.84284013  1
  Li  Li2  1  0.24625566  0.00261057  0.50950652  1
  Li  Li3  1  0.75636236  0.75376797  0.50950066  1
  Li  Li4  1  0.57956531  0.91030441  0.67616747  1
  Li  Li5  1  0.91289859  0.57697089  0.34283397  1
  Li  Li6  1  0.75635841  0.00260211  0.00950673  1
  Li  Li7  1  0.24623209  0.24363779  0.00950036  1
  Li  Li8  1  0.42302489  0.33593518  0.34284013  1
  Li  Li9  1  0.42302898  0.08710140  0.84283396  1
  Li  Li10  1  -0.00261102  0.75374409  0.00950634  1
  Li  Li11  1  -0.00260227  0.24364170  0.50950666  1
  Li  Li12  1  0.08969145  0.66926894  0.67617354  1
  Li  Li13  1  0.08969578  0.42043463  0.17616747  1
  Li  Li14  1  0.91292270  0.33594438  0.84283974  1
  Li  Li15  1  0.57958896  0.66927717  0.17617316  1
  Li  Li16  1  0.33072228  0.42041056  0.67617282  1
  Li  Li17  1  0.33073155  0.91030853  0.17617354  1
  Br  Br18  1  0.00230584  0.78162541  0.50715169  1
  Br  Br19  1  0.00231315  0.22068428  0.00713106  1
  Br  Br20  1  0.55170815  0.66436095  0.67381868  1
  Br  Br21  1  0.11266800  0.44830639  0.67380832  1
  Br  Br22  1  0.88502691  0.55399861  0.84047508  1
  Br  Br23  1  0.21836009  0.22066486  0.50714181  1
  Br  Br24  1  0.11264914  0.66435369  0.17379745  1
  Br  Br25  1  0.55169361  0.88733175  0.17380828  1
  Br  Br26  1  0.77931586  0.99768704  0.50713078  1
  Br  Br27  1  0.77933495  0.78163966  0.00714198  1
  Br  Br28  1  0.33563938  0.44829196  0.17381818  1
  Br  Br29  1  0.33564635  0.88735058  0.67379764  1
  Br  Br30  1  0.44598232  0.33102022  0.84046359  1
  Br  Br31  1  0.44600168  0.11497314  0.34047539  1
  Br  Br32  1  0.21837446  0.99769443  0.00715219  1
  Br  Br33  1  0.88504161  0.33102760  0.34048512  1
  Br  Br34  1  0.66897263  0.11495874  0.84048515  1
  Br  Br35  1  0.66897962  0.55401731  0.34046442  1
