# generated using pymatgen
data_LiBr
_symmetry_space_group_name_H-M   'P 1'
_cell_length_a   5.50651081
_cell_length_b   5.51370731
_cell_length_c   5.50230779
_cell_angle_alpha   90.00048895
_cell_angle_beta   90.00004683
_cell_angle_gamma   90.00019456
_symmetry_Int_Tables_number   1
_chemical_formula_structural   LiBr
_chemical_formula_sum   'Li4 Br4'
_cell_volume   167.05715639
_cell_formula_units_Z   4
loop_
 _symmetry_equiv_pos_site_id
 _symmetry_equiv_pos_as_xyz
  1  'x, y, z'
loop_
 _atom_site_type_symbol
 _atom_site_label
 _atom_site_symmetry_multiplicity
 _atom_site_fract_x
 _atom_site_fract_y
 _atom_site_fract_z
 _atom_site_occupancy
  Li  Li0  1  0.00139654  0.25001881  0.75962171  1
  Li  Li1  1  0.50139666  0.74998134  0.75962173  1
  Li  Li2  1  -0.00139611  0.74998038  0.25962184  1
  Li  Li3  1  0.49860405  0.25001989  0.25962184  1
  Br  Br4  1  0.50075078  0.24993694  0.75815803  1
  Br  Br5  1  0.00075072  0.75006304  0.75815809  1
  Br  Br6  1  0.49924861  0.75006306  0.25815763  1
  Br  Br7  1  -0.00075124  0.24993654  0.25815761  1
