# generated using pymatgen
data_KI
_symmetry_space_group_name_H-M   'P 1'
_cell_length_a   9.72547902
_cell_length_b   4.53263778
_cell_length_c   8.48294481
_cell_angle_alpha   90.00039213
_cell_angle_beta   90.00002962
_cell_angle_gamma   89.99908848
_symmetry_Int_Tables_number   1
_chemical_formula_structural   KI
_chemical_formula_sum   'K4 I4'
_cell_volume   373.94579760
_cell_formula_units_Z   4
loop_
 _symmetry_equiv_pos_site_id
 _symmetry_equiv_pos_as_xyz
  1  'x, y, z'
loop_
 _atom_site_type_symbol
 _atom_site_label
 _atom_site_symmetry_multiplicity
 _atom_site_fract_x
 _atom_site_fract_y
 _atom_site_fract_z
 _atom_site_occupancy
  K  K0  1  0.37545476  -0.00232889  0.64728717  1
  K  K1  1  0.87545468  0.00232758  0.64728665  1
  K  K2  1  0.62454444  0.00233003  0.14728644  1
  K  K3  1  0.12454471  -0.00232902  0.14728680  1
  I  I4  1  0.12521633  0.49741922  0.81415471  1
  I  I5  1  0.62521628  0.50258118  0.81415430  1
  I  I6  1  0.87478428  0.50258230  0.31415428  1
  I  I7  1  0.37478451  0.49741761  0.31415426  1
