# generated using pymatgen
data_LiBr
_symmetry_space_group_name_H-M   'P 1'
_cell_length_a   3.89758939
_cell_length_b   3.89547056
_cell_length_c   11.00229197
_cell_angle_alpha   89.99205579
_cell_angle_beta   89.98627772
_cell_angle_gamma   90.07361304
_symmetry_Int_Tables_number   1
_chemical_formula_structural   LiBr
_chemical_formula_sum   'Li4 Br4'
_cell_volume   167.04704636
_cell_formula_units_Z   4
loop_
 _symmetry_equiv_pos_site_id
 _symmetry_equiv_pos_as_xyz
  1  'x, y, z'
loop_
 _atom_site_type_symbol
 _atom_site_label
 _atom_site_symmetry_multiplicity
 _atom_site_fract_x
 _atom_site_fract_y
 _atom_site_fract_z
 _atom_site_occupancy
  Li  Li0  1  0.49782989  -0.00241705  0.11775851  1
  Li  Li1  1  -0.00223713  0.50213162  0.86777440  1
  Li  Li2  1  0.50215272  0.00242846  0.61771956  1
  Li  Li3  1  0.00219836  0.49790629  0.36776900  1
  Br  Br4  1  0.00069450  0.50120837  0.61729037  1
  Br  Br5  1  0.50211332  -0.00066789  0.36728368  1
  Br  Br6  1  -0.00067061  0.49876858  0.11731079  1
  Br  Br7  1  0.49791896  0.00064162  0.86727960  1
