# generated using pymatgen
data_LiBr
_symmetry_space_group_name_H-M   'P 1'
_cell_length_a   5.20326615
_cell_length_b   5.19350663
_cell_length_c   8.58758013
_cell_angle_alpha   89.99843157
_cell_angle_beta   90.00462387
_cell_angle_gamma   90.00027503
_symmetry_Int_Tables_number   1
_chemical_formula_structural   LiBr
_chemical_formula_sum   'Li4 Br4'
_cell_volume   232.06387100
_cell_formula_units_Z   4
loop_
 _symmetry_equiv_pos_site_id
 _symmetry_equiv_pos_as_xyz
  1  'x, y, z'
loop_
 _atom_site_type_symbol
 _atom_site_label
 _atom_site_symmetry_multiplicity
 _atom_site_fract_x
 _atom_site_fract_y
 _atom_site_fract_z
 _atom_site_occupancy
  Li  Li0  1  0.25057756  0.75052100  0.39049062  1
  Li  Li1  1  0.74942249  0.25057054  0.89047793  1
  Li  Li2  1  0.74946117  0.24942951  0.39047850  1
  Li  Li3  1  0.25053845  0.74947891  0.89049152  1
  Br  Br4  1  0.75032241  0.75027761  0.89041146  1
  Br  Br5  1  0.24967775  0.25022673  0.39041507  1
  Br  Br6  1  0.24963838  0.24977323  0.89041499  1
  Br  Br7  1  0.75036178  0.74972247  0.39041135  1
