# generated using pymatgen
data_LiI
_symmetry_space_group_name_H-M   'P 1'
_cell_length_a   4.28398061
_cell_length_b   5.88591891
_cell_length_c   4.28752755
_cell_angle_alpha   89.99991670
_cell_angle_beta   89.83907062
_cell_angle_gamma   90.00017755
_symmetry_Int_Tables_number   1
_chemical_formula_structural   LiI
_chemical_formula_sum   'Li2 I2'
_cell_volume   108.11027740
_cell_formula_units_Z   2
loop_
 _symmetry_equiv_pos_site_id
 _symmetry_equiv_pos_as_xyz
  1  'x, y, z'
loop_
 _atom_site_type_symbol
 _atom_site_label
 _atom_site_symmetry_multiplicity
 _atom_site_fract_x
 _atom_site_fract_y
 _atom_site_fract_z
 _atom_site_occupancy
  Li  Li0  1  0.74817814  0.15875920  0.25096353  1
  Li  Li1  1  0.25182117  0.65875918  0.74904569  1
  I  I2  1  0.75094687  0.65806428  0.24915516  1
  I  I3  1  0.24905382  0.15806486  0.75083562  1
