# generated using pymatgen
data_LiBr
_symmetry_space_group_name_H-M   'P 1'
_cell_length_a   13.83506160
_cell_length_b   13.83507311
_cell_length_c   7.63698744
_cell_angle_alpha   89.98869043
_cell_angle_beta   90.01145552
_cell_angle_gamma   120.01906184
_symmetry_Int_Tables_number   1
_chemical_formula_structural   LiBr
_chemical_formula_sum   'Li18 Br18'
_cell_volume   1265.70297517
_cell_formula_units_Z   18
loop_
 _symmetry_equiv_pos_site_id
 _symmetry_equiv_pos_as_xyz
  1  'x, y, z'
loop_
 _atom_site_type_symbol
 _atom_site_label
 _atom_site_symmetry_multiplicity
 _atom_site_fract_x
 _atom_site_fract_y
 _atom_site_fract_z
 _atom_site_occupancy
  Li  Li0  1  0.10804537  0.29425641  0.53575792  1
  Li  Li1  1  0.89192580  0.18625108  0.46419700  1
  Li  Li2  1  0.14754868  0.37258892  0.13134504  1
  Li  Li3  1  0.48030125  0.03896812  0.79782153  1
  Li  Li4  1  0.37258982  0.14755122  0.86865275  1
  Li  Li5  1  0.70574878  0.81377258  0.53582178  1
  Li  Li6  1  0.51981214  0.55867109  0.20218266  1
  Li  Li7  1  0.03897012  0.48030248  0.20217841  1
  Li  Li8  1  0.18625603  0.89192505  0.53580298  1
  Li  Li9  1  0.81377498  0.70575064  0.46417931  1
  Li  Li10  1  0.44135161  0.96105654  0.20213327  1
  Li  Li11  1  0.55866966  0.51981258  0.79781625  1
  Li  Li12  1  0.85252943  0.22499880  0.86868570  1
  Li  Li13  1  0.96104875  0.44134968  0.79786726  1
  Li  Li14  1  0.62738892  0.77505456  0.13139531  1
  Li  Li15  1  0.29426116  0.10804673  0.46424425  1
  Li  Li16  1  0.22499780  0.85252958  0.13131361  1
  Li  Li17  1  0.77505418  0.62739222  0.86860731  1
  Br  Br18  1  0.36271442  0.85317318  0.92162583  1
  Br  Br19  1  0.63722194  0.49038832  0.07830136  1
  Br  Br20  1  0.84307953  0.81333115  0.74515370  1
  Br  Br21  1  0.17624849  0.48013007  0.41204152  1
  Br  Br22  1  0.81332933  0.84307800  0.25484588  1
  Br  Br23  1  0.14682244  0.50963991  0.92164705  1
  Br  Br24  1  0.82375958  0.30387469  0.58801079  1
  Br  Br25  1  0.48013357  0.17624831  0.58795705  1
  Br  Br26  1  0.49038810  0.63722314  0.92169754  1
  Br  Br27  1  0.50964100  0.14682684  0.07835105  1
  Br  Br28  1  0.69602247  0.51985720  0.58791789  1
  Br  Br29  1  0.30387909  0.82376144  0.41198679  1
  Br  Br30  1  0.15692774  -0.02970715  0.25488815  1
  Br  Br31  1  0.51985523  0.69602064  0.41208348  1
  Br  Br32  1  0.18663540  0.02960289  0.74518357  1
  Br  Br33  1  0.85317162  0.36271499  0.07837474  1
  Br  Br34  1  -0.02970778  0.15692548  0.74511452  1
  Br  Br35  1  0.02960337  0.18663262  0.25481672  1
