# generated using pymatgen
data_LiBr
_symmetry_space_group_name_H-M   'P 1'
_cell_length_a   11.45553877
_cell_length_b   11.45554812
_cell_length_c   7.96503971
_cell_angle_alpha   90.00063183
_cell_angle_beta   89.99935404
_cell_angle_gamma   120.00145242
_symmetry_Int_Tables_number   1
_chemical_formula_structural   LiBr
_chemical_formula_sum   'Li18 Br18'
_cell_volume   905.19805909
_cell_formula_units_Z   18
loop_
 _symmetry_equiv_pos_site_id
 _symmetry_equiv_pos_as_xyz
  1  'x, y, z'
loop_
 _atom_site_type_symbol
 _atom_site_label
 _atom_site_symmetry_multiplicity
 _atom_site_fract_x
 _atom_site_fract_y
 _atom_site_fract_z
 _atom_site_occupancy
  Li  Li0  1  0.46437295  -0.07304920  0.34761106  1
  Li  Li1  1  0.46435614  0.53740813  0.84765564  1
  Li  Li2  1  0.40639472  0.20240491  0.51455213  1
  Li  Li3  1  0.79602743  0.59362193  0.51455627  1
  Li  Li4  1  0.73974022  0.87062728  0.68146818  1
  Li  Li5  1  0.07303573  0.53736911  0.34763712  1
  Li  Li6  1  0.79599867  0.20239849  0.01461121  1
  Li  Li7  1  0.40637549  0.20397173  0.01455563  1
  Li  Li8  1  0.46259053  0.53564323  0.34765537  1
  Li  Li9  1  0.46263189  -0.07303524  0.84763562  1
  Li  Li10  1  0.79759338  0.59360401  0.01455354  1
  Li  Li11  1  0.79760257  0.20400141  0.51461068  1
  Li  Li12  1  0.12938115  0.86910054  0.68146983  1
  Li  Li13  1  0.12937145  0.26026187  0.18146844  1
  Li  Li14  1  0.07304994  0.53562691  0.84761316  1
  Li  Li15  1  0.73976906  0.86912015  0.18146109  1
  Li  Li16  1  0.13087990  0.26023034  0.68146143  1
  Li  Li17  1  0.13089752  0.87061857  0.18146952  1
  Br  Br18  1  0.21350667  0.42534457  0.92148690  1
  Br  Br19  1  0.21350762  0.78815334  0.42150711  1
  Br  Br20  1  0.90802477  0.45321637  0.08779129  1
  Br  Br21  1  0.54518890  0.09198117  0.08779531  1
  Br  Br22  1  0.24133715  0.12145363  0.25466872  1
  Br  Br23  1  0.57464227  0.78816188  0.92149980  1
  Br  Br24  1  0.54517700  0.45323375  0.58781394  1
  Br  Br25  1  0.90802088  0.45481192  0.58779724  1
  Br  Br26  1  0.21184753  0.78649308  0.92150804  1
  Br  Br27  1  0.21183837  0.42535880  0.42150148  1
  Br  Br28  1  0.54678458  0.09197592  0.58778937  1
  Br  Br29  1  0.54676530  0.45482254  0.08781429  1
  Br  Br30  1  0.87854178  0.11990913  0.25473400  1
  Br  Br31  1  0.87854692  0.75866126  0.75466957  1
  Br  Br32  1  0.57465657  0.78649412  0.42148705  1
  Br  Br33  1  0.24133073  0.11987659  0.75465830  1
  Br  Br34  1  0.88012279  0.75866900  0.25465959  1
  Br  Br35  1  0.88009143  0.12145875  0.75473462  1
