# generated using pymatgen
data_LiBr
_symmetry_space_group_name_H-M   'P 1'
_cell_length_a   6.46107770
_cell_length_b   6.61427959
_cell_length_c   3.88174239
_cell_angle_alpha   89.99888138
_cell_angle_beta   90.00006156
_cell_angle_gamma   89.99966568
_symmetry_Int_Tables_number   1
_chemical_formula_structural   LiBr
_chemical_formula_sum   'Li4 Br4'
_cell_volume   165.88771428
_cell_formula_units_Z   4
loop_
 _symmetry_equiv_pos_site_id
 _symmetry_equiv_pos_as_xyz
  1  'x, y, z'
loop_
 _atom_site_type_symbol
 _atom_site_label
 _atom_site_symmetry_multiplicity
 _atom_site_fract_x
 _atom_site_fract_y
 _atom_site_fract_z
 _atom_site_occupancy
  Li  Li0  1  0.49854058  0.25172829  0.03565560  1
  Li  Li1  1  0.99849245  0.24826823  0.03567214  1
  Li  Li2  1  0.50150397  0.74828764  0.53567427  1
  Li  Li3  1  0.00144868  0.75170312  0.53565573  1
  Br  Br4  1  0.25011652  0.41721308  0.53598481  1
  Br  Br5  1  0.75012686  0.08278234  0.53599386  1
  Br  Br6  1  0.74988273  0.58279330  0.03599596  1
  Br  Br7  1  0.24988820  0.91722400  0.03598541  1
