# generated using pymatgen
data_LiBr
_symmetry_space_group_name_H-M   'P 1'
_cell_length_a   9.71109593
_cell_length_b   4.47660169
_cell_length_c   7.08091786
_cell_angle_alpha   90.00012907
_cell_angle_beta   137.51955864
_cell_angle_gamma   89.99991966
_symmetry_Int_Tables_number   1
_chemical_formula_structural   LiBr
_chemical_formula_sum   'Li4 Br4'
_cell_volume   207.88720360
_cell_formula_units_Z   4
loop_
 _symmetry_equiv_pos_site_id
 _symmetry_equiv_pos_as_xyz
  1  'x, y, z'
loop_
 _atom_site_type_symbol
 _atom_site_label
 _atom_site_symmetry_multiplicity
 _atom_site_fract_x
 _atom_site_fract_y
 _atom_site_fract_z
 _atom_site_occupancy
  Li  Li0  1  0.66922447  0.50190180  0.34275314  1
  Li  Li1  1  0.33077536  0.00190029  0.15724574  1
  Li  Li2  1  0.33077529  0.49809831  0.65724674  1
  Li  Li3  1  0.66922446  -0.00190053  -0.15724609  1
  Br  Br4  1  0.26531211  -0.00171753  0.43964527  1
  Br  Br5  1  0.73469164  0.49827846  0.06036006  1
  Br  Br6  1  0.73468818  0.00171774  0.56035512  1
  Br  Br7  1  0.26530848  0.50172146  0.93964002  1
