# generated using pymatgen
data_Na2O2
_symmetry_space_group_name_H-M   'P 1'
_cell_length_a   4.08517283
_cell_length_b   4.08272723
_cell_length_c   6.90038806
_cell_angle_alpha   90.00070301
_cell_angle_beta   124.27330331
_cell_angle_gamma   89.99481402
_symmetry_Int_Tables_number   1
_chemical_formula_structural   Na2O2
_chemical_formula_sum   'Na4 O4'
_cell_volume   95.10514406
_cell_formula_units_Z   2
loop_
 _symmetry_equiv_pos_site_id
 _symmetry_equiv_pos_as_xyz
  1  'x, y, z'
loop_
 _atom_site_type_symbol
 _atom_site_label
 _atom_site_symmetry_multiplicity
 _atom_site_fract_x
 _atom_site_fract_y
 _atom_site_fract_z
 _atom_site_occupancy
  Na  Na0  1  0.03709173  0.74949819  0.29893920  1
  Na  Na1  1  0.53712344  0.24947769  0.29898932  1
  Na  Na2  1  0.03707670  0.25054539  0.79892986  1
  Na  Na3  1  0.53700898  0.75051133  0.79887630  1
  O  O4  1  0.78630502  0.74989232  0.54875941  1
  O  O5  1  0.28624183  0.24991433  0.54870569  1
  O  O6  1  0.78628791  0.25006240  0.04877738  1
  O  O7  1  0.28631255  0.75009836  0.04876091  1
