# generated using pymatgen
data_NaI
_symmetry_space_group_name_H-M   'P 1'
_cell_length_a   9.13352388
_cell_length_b   7.87636508
_cell_length_c   7.73824869
_cell_angle_alpha   89.99968636
_cell_angle_beta   89.99999375
_cell_angle_gamma   90.00002638
_symmetry_Int_Tables_number   1
_chemical_formula_structural   NaI
_chemical_formula_sum   'Na8 I8'
_cell_volume   556.68162866
_cell_formula_units_Z   8
loop_
 _symmetry_equiv_pos_site_id
 _symmetry_equiv_pos_as_xyz
  1  'x, y, z'
loop_
 _atom_site_type_symbol
 _atom_site_label
 _atom_site_symmetry_multiplicity
 _atom_site_fract_x
 _atom_site_fract_y
 _atom_site_fract_z
 _atom_site_occupancy
  Na  Na0  1  0.12606781  0.25121782  0.00034877  1
  Na  Na1  1  0.12606829  0.24878573  0.50035531  1
  Na  Na2  1  0.62606770  0.24878235  -0.00034794  1
  Na  Na3  1  0.37393169  0.74878567  0.50035441  1
  Na  Na4  1  0.87393172  0.75121427  0.49964479  1
  Na  Na5  1  0.37393229  0.75121769  0.00034809  1
  Na  Na6  1  0.62606829  0.25121435  0.49964545  1
  Na  Na7  1  0.87393220  0.74878213  -0.00034891  1
  I  I8  1  0.62409528  0.91583617  0.25038619  1
  I  I9  1  0.62408958  0.58416689  0.75038627  1
  I  I10  1  0.12409499  0.58416385  0.74961375  1
  I  I11  1  0.87591034  0.08416675  0.75038649  1
  I  I12  1  0.37591059  0.41583313  0.24961366  1
  I  I13  1  0.87590484  0.41583612  0.25038618  1
  I  I14  1  0.12408982  0.91583321  0.24961359  1
  I  I15  1  0.37590458  0.08416388  0.74961389  1
