# generated using pymatgen
data_LiI
_symmetry_space_group_name_H-M   'P 1'
_cell_length_a   8.09874458
_cell_length_b   8.09869204
_cell_length_c   4.35886183
_cell_angle_alpha   89.99990864
_cell_angle_beta   89.99958009
_cell_angle_gamma   90.00123870
_symmetry_Int_Tables_number   1
_chemical_formula_structural   LiI
_chemical_formula_sum   'Li4 I4'
_cell_volume   285.89442689
_cell_formula_units_Z   4
loop_
 _symmetry_equiv_pos_site_id
 _symmetry_equiv_pos_as_xyz
  1  'x, y, z'
loop_
 _atom_site_type_symbol
 _atom_site_label
 _atom_site_symmetry_multiplicity
 _atom_site_fract_x
 _atom_site_fract_y
 _atom_site_fract_z
 _atom_site_occupancy
  Li  Li0  1  0.56843876  0.16154373  0.29907574  1
  Li  Li1  1  0.16155122  0.43153689  0.54902640  1
  Li  Li2  1  0.43156131  0.83845755  0.79908768  1
  Li  Li3  1  0.83844878  0.56846308  0.04902197  1
  I  I4  1  0.82651817  0.35158099  0.54408025  1
  I  I5  1  0.35155021  0.17344866  0.79411307  1
  I  I6  1  0.17348112  0.64841851  0.04408228  1
  I  I7  1  0.64845042  0.82655060  0.29411628  1
