# generated using pymatgen
data_LiBr
_symmetry_space_group_name_H-M   'P 1'
_cell_length_a   4.36869716
_cell_length_b   9.29377401
_cell_length_c   5.13008464
_cell_angle_alpha   89.99994976
_cell_angle_beta   90.00007008
_cell_angle_gamma   89.99999493
_symmetry_Int_Tables_number   1
_chemical_formula_structural   LiBr
_chemical_formula_sum   'Li4 Br4'
_cell_volume   208.29007640
_cell_formula_units_Z   4
loop_
 _symmetry_equiv_pos_site_id
 _symmetry_equiv_pos_as_xyz
  1  'x, y, z'
loop_
 _atom_site_type_symbol
 _atom_site_label
 _atom_site_symmetry_multiplicity
 _atom_site_fract_x
 _atom_site_fract_y
 _atom_site_fract_z
 _atom_site_occupancy
  Li  Li0  1  0.49926559  0.61322929  0.54618208  1
  Li  Li1  1  0.50073421  0.11322914  0.95381656  1
  Li  Li2  1  0.00073358  0.38677085  0.04618345  1
  Li  Li3  1  -0.00073421  0.88677069  0.45381788  1
  Br  Br4  1  -0.00080345  0.62400831  0.28959498  1
  Br  Br5  1  0.00080406  0.12400794  0.21040452  1
  Br  Br6  1  0.50080375  0.37599210  0.78959579  1
  Br  Br7  1  0.49919647  0.87599168  0.71040473  1
