# generated using pymatgen
data_LiBr
_symmetry_space_group_name_H-M   'P 1'
_cell_length_a   11.90958490
_cell_length_b   11.90958693
_cell_length_c   7.31989237
_cell_angle_alpha   90.00232723
_cell_angle_beta   89.99792651
_cell_angle_gamma   120.00814378
_symmetry_Int_Tables_number   1
_chemical_formula_structural   LiBr
_chemical_formula_sum   'Li18 Br18'
_cell_volume   899.06896252
_cell_formula_units_Z   18
loop_
 _symmetry_equiv_pos_site_id
 _symmetry_equiv_pos_as_xyz
  1  'x, y, z'
loop_
 _atom_site_type_symbol
 _atom_site_label
 _atom_site_symmetry_multiplicity
 _atom_site_fract_x
 _atom_site_fract_y
 _atom_site_fract_z
 _atom_site_occupancy
  Li  Li0  1  0.83547306  0.04355502  -0.02280394  1
  Li  Li1  1  0.83550151  0.79192941  0.47718087  1
  Li  Li2  1  0.28977876  0.83119321  0.14386459  1
  Li  Li3  1  0.54140946  0.71023810  0.14385362  1
  Li  Li4  1  0.62309344  0.12525734  0.31051728  1
  Li  Li5  1  0.95642718  0.79192451  -0.02281751  1
  Li  Li6  1  0.54140404  0.83116741  0.64384916  1
  Li  Li7  1  0.28976130  0.45859036  0.64385363  1
  Li  Li8  1  0.20806963  0.16449839  -0.02281906  1
  Li  Li9  1  0.20807542  0.04357419  0.47718209  1
  Li  Li10  1  0.16880715  0.71022172  0.64386478  1
  Li  Li11  1  0.16883349  0.45859632  0.14384858  1
  Li  Li12  1  0.87473701  0.49783119  0.31051048  1
  Li  Li13  1  0.87474222  0.37690651  0.81051654  1
  Li  Li14  1  0.95644343  0.16452547  0.47719566  1
  Li  Li15  1  0.62311036  0.49785897  0.81052664  1
  Li  Li16  1  0.50214184  0.37688989  0.31052771  1
  Li  Li17  1  0.50216711  0.12526346  0.81051395  1
  Br  Br18  1  0.83163524  0.28952800  0.47936392  1
  Br  Br19  1  0.83164700  0.54211449  0.97936766  1
  Br  Br20  1  0.04380515  0.83503121  0.64603142  1
  Br  Br21  1  0.79123235  0.95619809  0.64603883  1
  Br  Br22  1  0.37713566  0.87543524  0.81270711  1
  Br  Br23  1  0.71047039  0.54210144  0.47937049  1
  Br  Br24  1  0.79121914  0.83501916  0.14603712  1
  Br  Br25  1  0.04380147  0.20876757  0.14603907  1
  Br  Br26  1  0.45788544  0.16835361  0.47936916  1
  Br  Br27  1  0.45789824  0.28953174  0.97937069  1
  Br  Br28  1  0.16496911  0.95619548  0.14603143  1
  Br  Br29  1  0.16498017  0.20878088  0.64603731  1
  Br  Br30  1  0.12455234  0.50168543  0.81270457  1
  Br  Br31  1  0.12456529  0.62286451  0.31270677  1
  Br  Br32  1  0.71047080  0.16836426  0.97936417  1
  Br  Br33  1  0.37713749  0.50169679  0.31269948  1
  Br  Br34  1  0.49830340  0.62286295  0.81269909  1
  Br  Br35  1  0.49831489  0.87544767  0.31270443  1
