# generated using pymatgen
data_LiBr
_symmetry_space_group_name_H-M   'P 1'
_cell_length_a   6.61364528
_cell_length_b   6.61378558
_cell_length_c   3.95207353
_cell_angle_alpha   90.00295196
_cell_angle_beta   89.99421342
_cell_angle_gamma   120.00630165
_symmetry_Int_Tables_number   1
_chemical_formula_structural   LiBr
_chemical_formula_sum   'Li3 Br3'
_cell_volume   149.69906002
_cell_formula_units_Z   3
loop_
 _symmetry_equiv_pos_site_id
 _symmetry_equiv_pos_as_xyz
  1  'x, y, z'
loop_
 _atom_site_type_symbol
 _atom_site_label
 _atom_site_symmetry_multiplicity
 _atom_site_fract_x
 _atom_site_fract_y
 _atom_site_fract_z
 _atom_site_occupancy
  Li  Li0  1  0.05845022  0.33360493  0.29216193  1
  Li  Li1  1  0.66640017  0.72483362  -0.04129108  1
  Li  Li2  1  0.27516825  0.94160675  0.62535414  1
  Br  Br3  1  0.66662760  -0.02386792  0.45875738  1
  Br  Br4  1  0.02384429  0.69046914  0.12536410  1
  Br  Br5  1  0.30950945  0.33335349  0.79202232  1
