# generated using pymatgen
data_LiBr
_symmetry_space_group_name_H-M   'P 1'
_cell_length_a   5.98321823
_cell_length_b   4.29615857
_cell_length_c   8.63777671
_cell_angle_alpha   89.99989989
_cell_angle_beta   89.99854636
_cell_angle_gamma   90.00084210
_symmetry_Int_Tables_number   1
_chemical_formula_structural   LiBr
_chemical_formula_sum   'Li4 Br4'
_cell_volume   222.03279143
_cell_formula_units_Z   4
loop_
 _symmetry_equiv_pos_site_id
 _symmetry_equiv_pos_as_xyz
  1  'x, y, z'
loop_
 _atom_site_type_symbol
 _atom_site_label
 _atom_site_symmetry_multiplicity
 _atom_site_fract_x
 _atom_site_fract_y
 _atom_site_fract_z
 _atom_site_occupancy
  Li  Li0  1  -0.03476754  0.50334863  0.39888134  1
  Li  Li1  1  0.03476351  0.00334504  0.10111760  1
  Li  Li2  1  0.53476549  0.49665039  0.89887927  1
  Li  Li3  1  0.46523407  -0.00334591  0.60112243  1
  Br  Br4  1  0.81059426  0.50310299  0.11797237  1
  Br  Br5  1  0.18940800  0.00309759  0.38202961  1
  Br  Br6  1  0.68941709  0.49689768  0.61796933  1
  Br  Br7  1  0.31058512  -0.00309640  0.88202807  1
