# generated using pymatgen
data_LiBr
_symmetry_space_group_name_H-M   'P 1'
_cell_length_a   8.33706886
_cell_length_b   4.16464096
_cell_length_c   5.89391979
_cell_angle_alpha   89.99990998
_cell_angle_beta   89.99988804
_cell_angle_gamma   90.00002372
_symmetry_Int_Tables_number   1
_chemical_formula_structural   LiBr
_chemical_formula_sum   'Li4 Br4'
_cell_volume   204.64219077
_cell_formula_units_Z   4
loop_
 _symmetry_equiv_pos_site_id
 _symmetry_equiv_pos_as_xyz
  1  'x, y, z'
loop_
 _atom_site_type_symbol
 _atom_site_label
 _atom_site_symmetry_multiplicity
 _atom_site_fract_x
 _atom_site_fract_y
 _atom_site_fract_z
 _atom_site_occupancy
  Li  Li0  1  0.37572770  0.24787336  0.50645810  1
  Li  Li1  1  0.87572638  0.25212637  0.50645696  1
  Li  Li2  1  0.62427424  0.75212191  0.00646050  1
  Li  Li3  1  0.12427108  0.74787830  0.00645906  1
  Br  Br4  1  0.37483275  0.74783595  0.75663869  1
  Br  Br5  1  0.87483198  0.75216481  0.75663427  1
  Br  Br6  1  0.62516741  0.25216218  0.25663552  1
  Br  Br7  1  0.12516847  0.24783713  0.25663649  1
