# generated using pymatgen
data_KI
_symmetry_space_group_name_H-M   'P 1'
_cell_length_a   7.18660889
_cell_length_b   7.18777027
_cell_length_c   7.18574523
_cell_angle_alpha   89.99999945
_cell_angle_beta   89.99999049
_cell_angle_gamma   89.99999980
_symmetry_Int_Tables_number   1
_chemical_formula_structural   KI
_chemical_formula_sum   'K4 I4'
_cell_volume   371.18465501
_cell_formula_units_Z   4
loop_
 _symmetry_equiv_pos_site_id
 _symmetry_equiv_pos_as_xyz
  1  'x, y, z'
loop_
 _atom_site_type_symbol
 _atom_site_label
 _atom_site_symmetry_multiplicity
 _atom_site_fract_x
 _atom_site_fract_y
 _atom_site_fract_z
 _atom_site_occupancy
  K  K0  1  0.25443057  0.25116717  0.75015017  1
  K  K1  1  0.74556944  0.75116717  0.74984991  1
  K  K2  1  0.24556944  0.74883286  0.25015008  1
  K  K3  1  0.75443056  0.24883286  0.24984985  1
  I  I4  1  0.74620847  0.74864798  0.25039500  1
  I  I5  1  0.25379153  0.24864798  0.24960503  1
  I  I6  1  0.75379147  0.25135199  0.75039717  1
  I  I7  1  0.24620852  0.75135199  0.74960280  1
