# generated using pymatgen
data_LiBr
_symmetry_space_group_name_H-M   'P 1'
_cell_length_a   3.89719187
_cell_length_b   3.89733906
_cell_length_c   9.52111658
_cell_angle_alpha   90.00041650
_cell_angle_beta   90.00438125
_cell_angle_gamma   119.99820051
_symmetry_Int_Tables_number   1
_chemical_formula_structural   LiBr
_chemical_formula_sum   'Li3 Br3'
_cell_volume   125.24095321
_cell_formula_units_Z   3
loop_
 _symmetry_equiv_pos_site_id
 _symmetry_equiv_pos_as_xyz
  1  'x, y, z'
loop_
 _atom_site_type_symbol
 _atom_site_label
 _atom_site_symmetry_multiplicity
 _atom_site_fract_x
 _atom_site_fract_y
 _atom_site_fract_z
 _atom_site_occupancy
  Li  Li0  1  0.99878087  0.66883902  0.34598736  1
  Li  Li1  1  0.33115325  0.32993885  0.01268132  1
  Li  Li2  1  0.67007320  0.00123427  0.67927176  1
  Br  Br3  1  0.33284871  0.33276852  0.51316994  1
  Br  Br4  1  0.66722549  0.00007545  0.17971786  1
  Br  Br5  1  -0.00008154  0.66714390  0.84644371  1
