# generated using pymatgen
data_LiBr
_symmetry_space_group_name_H-M   'P 1'
_cell_length_a   10.43928085
_cell_length_b   10.43928400
_cell_length_c   12.03787663
_cell_angle_alpha   90.00320864
_cell_angle_beta   89.99685585
_cell_angle_gamma   120.01171345
_symmetry_Int_Tables_number   1
_chemical_formula_structural   LiBr
_chemical_formula_sum   'Li18 Br18'
_cell_volume   1135.97962050
_cell_formula_units_Z   18
loop_
 _symmetry_equiv_pos_site_id
 _symmetry_equiv_pos_as_xyz
  1  'x, y, z'
loop_
 _atom_site_type_symbol
 _atom_site_label
 _atom_site_symmetry_multiplicity
 _atom_site_fract_x
 _atom_site_fract_y
 _atom_site_fract_z
 _atom_site_occupancy
  Li  Li0  1  0.08429385  0.66644794  0.12203805  1
  Li  Li1  1  0.08425578  0.41782920  0.62204072  1
  Li  Li2  1  0.66688215  0.58236912  0.28870833  1
  Li  Li3  1  -0.08449811  0.33311052  0.28873880  1
  Li  Li4  1  0.00022711  0.75116698  0.45541013  1
  Li  Li5  1  0.33356071  0.41783253  0.12207408  1
  Li  Li6  1  -0.08450173  0.58240864  0.78870746  1
  Li  Li7  1  0.66689650  0.08450134  0.78873793  1
  Li  Li8  1  0.58216955  0.91574235  0.12204321  1
  Li  Li9  1  0.58216973  0.66643663  0.62207583  1
  Li  Li10  1  0.41763484  0.33312385  0.78870587  1
  Li  Li11  1  0.41759517  0.08450768  0.28871096  1
  Li  Li12  1  0.24882936  0.24908087  0.45537379  1
  Li  Li13  1  0.24882487  -0.00023607  0.95541139  1
  Li  Li14  1  0.33355007  0.91570187  0.62204228  1
  Li  Li15  1  0.00021530  0.24903511  0.95537269  1
  Li  Li16  1  0.75096600  -0.00022092  0.45537116  1
  Li  Li17  1  0.75091933  0.75117023  0.95537885  1
  Br  Br18  1  0.99956121  0.75750033  0.95550017  1
  Br  Br19  1  -0.00045135  0.24203237  0.45544473  1
  Br  Br20  1  0.57584564  0.66713605  0.12214959  1
  Br  Br21  1  0.09133930  0.42423500  0.12210495  1
  Br  Br22  1  0.90911121  0.57531877  0.28876731  1
  Br  Br23  1  0.24243547  0.24198833  0.95543819  1
  Br  Br24  1  0.09131284  0.66714706  0.62210122  1
  Br  Br25  1  0.57576501  0.90866241  0.62211342  1
  Br  Br26  1  0.75797404  0.00046902  0.95543910  1
  Br  Br27  1  0.75801186  0.75756860  0.45543551  1
  Br  Br28  1  0.33286938  0.42415319  0.62215525  1
  Br  Br29  1  0.33285744  0.90868832  0.12209880  1
  Br  Br30  1  0.42463785  0.33379379  0.28877518  1
  Br  Br31  1  0.42468140  0.09089042  0.78876264  1
  Br  Br32  1  0.24250816  0.00045566  0.45549152  1
  Br  Br33  1  0.90917229  0.33378507  0.78882358  1
  Br  Br34  1  0.66619421  0.09081750  0.28881740  1
  Br  Br35  1  0.66618357  0.57535023  0.78876267  1
