# generated using pymatgen
data_LiI
_symmetry_space_group_name_H-M   'P 1'
_cell_length_a   12.26807695
_cell_length_b   12.26957760
_cell_length_c   12.25490030
_cell_angle_alpha   90.00567389
_cell_angle_beta   90.00046841
_cell_angle_gamma   120.01484822
_symmetry_Int_Tables_number   1
_chemical_formula_structural   LiI
_chemical_formula_sum   'Li18 I18'
_cell_volume   1597.28169696
_cell_formula_units_Z   18
loop_
 _symmetry_equiv_pos_site_id
 _symmetry_equiv_pos_as_xyz
  1  'x, y, z'
loop_
 _atom_site_type_symbol
 _atom_site_label
 _atom_site_symmetry_multiplicity
 _atom_site_fract_x
 _atom_site_fract_y
 _atom_site_fract_z
 _atom_site_occupancy
  Li  Li0  1  0.56646947  -0.12787381  0.25818825  1
  Li  Li1  1  0.36069017  0.89976263  0.07541223  1
  Li  Li2  1  0.43352679  0.12787433  0.74181505  1
  Li  Li3  1  0.30560404  0.43341523  0.25815807  1
  Li  Li4  1  0.53900875  0.63934996  0.07534264  1
  Li  Li5  1  -0.12783996  0.30567515  0.74182906  1
  Li  Li6  1  0.79432956  0.02773758  0.59187965  1
  Li  Li7  1  0.12784007  0.69432520  0.25817104  1
  Li  Li8  1  0.69439574  0.56658283  0.74184158  1
  Li  Li9  1  0.20566922  -0.02773875  0.40812468  1
  Li  Li10  1  0.46099043  0.36064714  0.92465486  1
  Li  Li11  1  -0.02774766  0.76651761  0.59182093  1
  Li  Li12  1  0.02775108  0.23348456  0.40817668  1
  Li  Li13  1  0.63930876  0.10023239  0.92459101  1
  Li  Li14  1  0.23342458  0.20567648  0.59185878  1
  Li  Li15  1  0.76657889  0.79432682  0.40814209  1
  Li  Li16  1  0.10032434  0.46098712  0.07536601  1
  Li  Li17  1  0.89967660  0.53901542  0.92463081  1
  I  I18  1  0.23733974  0.20847408  0.36422202  1
  I  I19  1  0.69544523  0.57055678  -0.03085510  1
  I  I20  1  0.76266272  0.79153247  0.63577961  1
  I  I21  1  -0.02889763  0.76261811  0.36421527  1
  I  I22  1  0.87500698  0.30462102  -0.03088585  1
  I  I23  1  0.20847686  -0.02884025  0.63574949  1
  I  I24  1  0.45844239  0.36258021  0.69731989  1
  I  I25  1  0.79152153  0.02883850  0.36425182  1
  I  I26  1  0.02889831  0.23738527  0.63578608  1
  I  I27  1  0.54155970  0.63742209  0.30268109  1
  I  I28  1  0.12498835  0.69537816  0.03088407  1
  I  I29  1  0.63742333  0.09580646  0.69728489  1
  I  I30  1  0.36258022  0.90418903  0.30271168  1
  I  I31  1  0.30455717  0.42944399  0.03085556  1
  I  I32  1  0.90415740  0.54161566  0.69730475  1
  I  I33  1  0.09583996  0.45838236  0.30269172  1
  I  I34  1  0.42953817  0.12492832  -0.03088507  1
  I  I35  1  0.57045870  0.87506983  0.03088461  1
