# generated using pymatgen
data_LiI
_symmetry_space_group_name_H-M   'P 1'
_cell_length_a   11.33218726
_cell_length_b   11.33219969
_cell_length_c   13.49154750
_cell_angle_alpha   90.00128085
_cell_angle_beta   89.99872668
_cell_angle_gamma   120.00832855
_symmetry_Int_Tables_number   1
_chemical_formula_structural   LiI
_chemical_formula_sum   'Li18 I18'
_cell_volume   1500.32002461
_cell_formula_units_Z   18
loop_
 _symmetry_equiv_pos_site_id
 _symmetry_equiv_pos_as_xyz
  1  'x, y, z'
loop_
 _atom_site_type_symbol
 _atom_site_label
 _atom_site_symmetry_multiplicity
 _atom_site_fract_x
 _atom_site_fract_y
 _atom_site_fract_z
 _atom_site_occupancy
  Li  Li0  1  0.58324604  0.66693922  0.38103134  1
  Li  Li1  1  0.58323318  -0.08370554  0.88101920  1
  Li  Li2  1  0.66645331  0.08362232  0.54772269  1
  Li  Li3  1  0.41719271  0.33356536  0.54772105  1
  Li  Li4  1  -0.00016744  0.24946940  0.71457713  1
  Li  Li5  1  0.33305309  -0.08368948  0.38101604  1
  Li  Li6  1  0.41719433  0.08362991  0.04772109  1
  Li  Li7  1  0.66643560  0.58280766  0.04772076  1
  Li  Li8  1  0.08370543  0.41676701  0.38101859  1
  Li  Li9  1  0.08368871  0.66694691  0.88101556  1
  Li  Li10  1  0.91637899  0.33354728  0.04772335  1
  Li  Li11  1  0.91636935  0.58280482  0.54772179  1
  Li  Li12  1  0.75053617  0.75037835  0.71457951  1
  Li  Li13  1  0.75053014  0.00016633  0.21457701  1
  Li  Li14  1  0.33306189  0.41675426  0.88103087  1
  Li  Li15  1  -0.00016143  0.75037463  0.21458234  1
  Li  Li16  1  0.24962525  0.00016158  0.71458224  1
  Li  Li17  1  0.24962105  0.24946299  0.21458011  1
  I  I18  1  0.75381724  0.75396603  0.21437221  1
  I  I19  1  0.75380633  -0.00015046  0.71435453  1
  I  I20  1  0.57916297  0.91271370  0.38102829  1
  I  I21  1  0.33354823  0.42082010  0.38104913  1
  I  I22  1  0.91280737  0.33318774  0.54777454  1
  I  I23  1  0.24604493  -0.00014582  0.21438389  1
  I  I24  1  0.33354950  0.91272818  0.88101421  1
  I  I25  1  0.57918026  0.66645201  0.88104892  1
  I  I26  1  0.00014994  0.24619304  0.21435532  1
  I  I27  1  0.00014469  0.75395504  0.71438403  1
  I  I28  1  0.08728684  0.42083767  0.88102759  1
  I  I29  1  0.08727143  0.66645032  0.38101457  1
  I  I30  1  0.66682106  0.57961939  0.54774765  1
  I  I31  1  0.66681228  0.08719194  0.04777482  1
  I  I32  1  0.24603403  0.24618364  0.71437229  1
  I  I33  1  0.91278355  0.57959842  0.04776334  1
  I  I34  1  0.42040199  0.08721683  0.54776325  1
  I  I35  1  0.42038097  0.33317923  0.04774832  1
