# generated using pymatgen
data_KI
_symmetry_space_group_name_H-M   'P 1'
_cell_length_a   8.48672189
_cell_length_b   4.89099528
_cell_length_c   9.00548625
_cell_angle_alpha   89.99998976
_cell_angle_beta   90.08578322
_cell_angle_gamma   89.99998356
_symmetry_Int_Tables_number   1
_chemical_formula_structural   KI
_chemical_formula_sum   'K4 I4'
_cell_volume   373.80395708
_cell_formula_units_Z   4
loop_
 _symmetry_equiv_pos_site_id
 _symmetry_equiv_pos_as_xyz
  1  'x, y, z'
loop_
 _atom_site_type_symbol
 _atom_site_label
 _atom_site_symmetry_multiplicity
 _atom_site_fract_x
 _atom_site_fract_y
 _atom_site_fract_z
 _atom_site_occupancy
  K  K0  1  0.82021535  -0.00200607  0.13219147  1
  K  K1  1  0.32021537  0.49799400  0.13219152  1
  K  K2  1  0.82021545  0.00200601  0.63219186  1
  K  K3  1  0.32021546  0.50200595  0.63219188  1
  I  I4  1  0.65320532  0.49953082  0.88290308  1
  I  I5  1  0.15320537  -0.00046885  0.88290315  1
  I  I6  1  0.65320530  0.50046922  0.38290318  1
  I  I7  1  0.15320533  0.00046892  0.38290327  1
