# generated using pymatgen
data_LiBr
_symmetry_space_group_name_H-M   'P 1'
_cell_length_a   6.13474499
_cell_length_b   5.90204916
_cell_length_c   5.99470314
_cell_angle_alpha   89.99275999
_cell_angle_beta   89.99181604
_cell_angle_gamma   89.99941819
_symmetry_Int_Tables_number   1
_chemical_formula_structural   LiBr
_chemical_formula_sum   'Li4 Br4'
_cell_volume   217.05360841
_cell_formula_units_Z   4
loop_
 _symmetry_equiv_pos_site_id
 _symmetry_equiv_pos_as_xyz
  1  'x, y, z'
loop_
 _atom_site_type_symbol
 _atom_site_label
 _atom_site_symmetry_multiplicity
 _atom_site_fract_x
 _atom_site_fract_y
 _atom_site_fract_z
 _atom_site_occupancy
  Li  Li0  1  0.74954857  0.00117199  0.41409827  1
  Li  Li1  1  0.24952785  -0.00117173  0.41409643  1
  Li  Li2  1  0.25047353  -0.00115291  0.91409914  1
  Li  Li3  1  0.75045276  0.00115348  0.91409698  1
  Br  Br4  1  0.49917299  0.22354472  0.66430832  1
  Br  Br5  1  -0.00083093  0.77645482  0.66427512  1
  Br  Br6  1  0.50082669  0.77645267  0.16427526  1
  Br  Br7  1  0.00082854  0.22354697  0.16430864  1
