# generated using pymatgen
data_LiBr
_symmetry_space_group_name_H-M   'P 1'
_cell_length_a   6.67965877
_cell_length_b   3.85787489
_cell_length_c   6.45623026
_cell_angle_alpha   89.99999622
_cell_angle_beta   89.99997744
_cell_angle_gamma   90.00000655
_symmetry_Int_Tables_number   1
_chemical_formula_structural   LiBr
_chemical_formula_sum   'Li4 Br4'
_cell_volume   166.37245608
_cell_formula_units_Z   4
loop_
 _symmetry_equiv_pos_site_id
 _symmetry_equiv_pos_as_xyz
  1  'x, y, z'
loop_
 _atom_site_type_symbol
 _atom_site_label
 _atom_site_symmetry_multiplicity
 _atom_site_fract_x
 _atom_site_fract_y
 _atom_site_fract_z
 _atom_site_occupancy
  Li  Li0  1  0.99845678  -0.00038575  0.00692319  1
  Li  Li1  1  0.49845541  0.50039028  0.00692360  1
  Li  Li2  1  0.00154360  0.00038582  0.50692270  1
  Li  Li3  1  0.50154421  0.49960960  0.50692372  1
  Br  Br4  1  0.16663415  0.50014172  0.75674480  1
  Br  Br5  1  0.66663383  -0.00014214  0.75674635  1
  Br  Br6  1  0.83336598  0.49985841  0.25674501  1
  Br  Br7  1  0.33336604  0.00014208  0.25674635  1
