# generated using pymatgen
data_LiBr
_symmetry_space_group_name_H-M   'P 1'
_cell_length_a   9.78043614
_cell_length_b   9.78045013
_cell_length_c   13.39755120
_cell_angle_alpha   90.00092654
_cell_angle_beta   89.99907664
_cell_angle_gamma   120.00781641
_symmetry_Int_Tables_number   1
_chemical_formula_structural   LiBr
_chemical_formula_sum   'Li18 Br18'
_cell_volume   1109.78515229
_cell_formula_units_Z   18
loop_
 _symmetry_equiv_pos_site_id
 _symmetry_equiv_pos_as_xyz
  1  'x, y, z'
loop_
 _atom_site_type_symbol
 _atom_site_label
 _atom_site_symmetry_multiplicity
 _atom_site_fract_x
 _atom_site_fract_y
 _atom_site_fract_z
 _atom_site_occupancy
  Li  Li0  1  0.74554497  0.74520455  0.31157481  1
  Li  Li1  1  0.74558875  0.00034293  0.81157191  1
  Li  Li2  1  0.58812737  -0.07887974  0.47824116  1
  Li  Li3  1  0.33297302  0.41188958  0.47823157  1
  Li  Li4  1  0.92144167  0.33369265  0.64489811  1
  Li  Li5  1  0.25477685  0.00036002  0.31156507  1
  Li  Li6  1  0.33299290  -0.07891885  0.97823776  1
  Li  Li7  1  0.58810937  0.66702595  0.97823110  1
  Li  Li8  1  -0.00034319  0.25441103  0.31157220  1
  Li  Li9  1  -0.00035885  0.74522337  0.81156477  1
  Li  Li10  1  0.07888096  0.41187287  0.97824316  1
  Li  Li11  1  0.07892202  0.66700961  0.47823848  1
  Li  Li12  1  0.66632468  0.58774419  0.64490516  1
  Li  Li13  1  0.66630755  0.07855652  0.14489739  1
  Li  Li14  1  0.25479271  0.25445346  0.81157457  1
  Li  Li15  1  0.92146191  0.58778802  0.14490868  1
  Li  Li16  1  0.41221404  0.07853915  0.64490870  1
  Li  Li17  1  0.41225480  0.33367474  0.14490490  1
  Br  Br18  1  0.66682293  0.06858989  0.64493789  1
  Br  Br19  1  0.66685655  0.59825738  0.14491034  1
  Br  Br20  1  0.26474264  -0.00015628  0.81160422  1
  Br  Br21  1  0.73509984  0.73526666  0.81158634  1
  Br  Br22  1  0.59806631  0.93156610  0.97825250  1
  Br  Br23  1  0.93140119  0.59823391  0.64491947  1
  Br  Br24  1  0.73507464  -0.00018961  0.31157590  1
  Br  Br25  1  0.26473264  0.26490070  0.31158569  1
  Br  Br26  1  0.40174249  0.33314473  0.64491028  1
  Br  Br27  1  0.40176663  0.06859977  0.14491922  1
  Br  Br28  1  0.00015497  0.73525783  0.31160447  1
  Br  Br29  1  0.00018741  0.26492528  0.81157730  1
  Br  Br30  1  0.06841074  0.66647868  0.97824399  1
  Br  Br31  1  0.06843205  0.40193293  0.47825257  1
  Br  Br32  1  0.93140961  0.33317791  0.14493799  1
  Br  Br33  1  0.59807636  0.66651055  0.47827094  1
  Br  Br34  1  0.33348879  0.40192167  0.97827084  1
  Br  Br35  1  0.33352266  0.93159187  0.47824402  1
