# generated using pymatgen
data_LiI
_symmetry_space_group_name_H-M   'P 1'
_cell_length_a   16.31729755
_cell_length_b   16.32870596
_cell_length_c   4.36125974
_cell_angle_alpha   89.99965612
_cell_angle_beta   89.99969033
_cell_angle_gamma   90.00187747
_symmetry_Int_Tables_number   1
_chemical_formula_structural   LiI
_chemical_formula_sum   'Li16 I16'
_cell_volume   1162.01558647
_cell_formula_units_Z   16
loop_
 _symmetry_equiv_pos_site_id
 _symmetry_equiv_pos_as_xyz
  1  'x, y, z'
loop_
 _atom_site_type_symbol
 _atom_site_label
 _atom_site_symmetry_multiplicity
 _atom_site_fract_x
 _atom_site_fract_y
 _atom_site_fract_z
 _atom_site_occupancy
  Li  Li0  1  0.77555115  0.10612674  0.17161661  1
  Li  Li1  1  0.60620648  0.77554011  0.42076751  1
  Li  Li2  1  0.22447030  0.10612405  0.67164839  1
  Li  Li3  1  0.22445253  0.89388488  0.17162499  1
  Li  Li4  1  0.39380516  0.22443571  0.42079433  1
  Li  Li5  1  0.89379081  0.27557598  0.42077222  1
  Li  Li6  1  0.10620127  0.72444313  0.42080242  1
  Li  Li7  1  0.39380118  0.77556514  0.92078523  1
  Li  Li8  1  0.60620306  0.22442381  0.92079418  1
  Li  Li9  1  0.72444427  0.39388361  0.67162889  1
  Li  Li10  1  0.89380680  0.72444757  0.92079586  1
  Li  Li11  1  0.27553923  0.60613191  0.67162589  1
  Li  Li12  1  0.10621285  0.27556037  0.92075773  1
  Li  Li13  1  0.72447626  0.60612086  0.17162608  1
  Li  Li14  1  0.27553666  0.39387676  0.17162644  1
  Li  Li15  1  0.77552190  0.89387005  0.67159321  1
  I  I16  1  0.62087883  0.12697618  0.41128129  1
  I  I17  1  0.62704223  0.62099401  0.66213999  1
  I  I18  1  0.37914404  0.12698599  0.91128412  1
  I  I19  1  0.37912185  0.87301026  0.41126316  1
  I  I20  1  0.37296454  0.37898268  0.66213128  1
  I  I21  1  0.87298230  0.12102291  0.66212071  1
  I  I22  1  0.12701954  0.87899447  0.66214036  1
  I  I23  1  0.37297452  0.62101094  0.16212887  1
  I  I24  1  0.62701535  0.37897500  0.16214301  1
  I  I25  1  0.87911767  0.37302340  0.91125006  1
  I  I26  1  0.87295539  0.87899740  0.16209857  1
  I  I27  1  0.12086988  0.62699560  0.91129059  1
  I  I28  1  0.12704021  0.12101489  0.16216023  1
  I  I29  1  0.87914438  0.62700012  0.41128583  1
  I  I30  1  0.12085919  0.37301340  0.41123903  1
  I  I31  1  0.62085016  0.87299205  0.91125043  1
