# generated using pymatgen
data_NaI
_symmetry_space_group_name_H-M   'P 1'
_cell_length_a   10.83314605
_cell_length_b   10.83314515
_cell_length_c   6.47189252
_cell_angle_alpha   90.00000545
_cell_angle_beta   90.00000652
_cell_angle_gamma   90.00001138
_symmetry_Int_Tables_number   1
_chemical_formula_structural   NaI
_chemical_formula_sum   'Na8 I8'
_cell_volume   759.52217250
_cell_formula_units_Z   8
loop_
 _symmetry_equiv_pos_site_id
 _symmetry_equiv_pos_as_xyz
  1  'x, y, z'
loop_
 _atom_site_type_symbol
 _atom_site_label
 _atom_site_symmetry_multiplicity
 _atom_site_fract_x
 _atom_site_fract_y
 _atom_site_fract_z
 _atom_site_occupancy
  Na  Na0  1  0.35661533  0.14209802  0.89613672  1
  Na  Na1  1  0.14209802  0.35661536  0.39613669  1
  Na  Na2  1  0.64338520  0.85790139  0.89613186  1
  Na  Na3  1  0.14209843  0.64338488  0.89614057  1
  Na  Na4  1  0.85790186  0.35661489  0.89612794  1
  Na  Na5  1  0.64338481  0.14209845  0.39614059  1
  Na  Na6  1  0.85790140  0.64338518  0.39613182  1
  Na  Na7  1  0.35661497  0.85790184  0.39612795  1
  I  I8  1  0.84891546  0.34939374  0.39652733  1
  I  I9  1  0.34939381  0.84891542  0.89652734  1
  I  I10  1  0.15108453  0.65060697  0.39654217  1
  I  I11  1  0.34939321  0.15108450  0.39653289  1
  I  I12  1  0.65060627  0.84891532  0.39653666  1
  I  I13  1  0.15108449  0.34939322  0.89653287  1
  I  I14  1  0.65060690  0.15108456  0.89654219  1
  I  I15  1  0.84891532  0.65060626  0.89653664  1
