# generated using pymatgen
data_LiI
_symmetry_space_group_name_H-M   'P 1'
_cell_length_a   7.49104976
_cell_length_b   8.06419826
_cell_length_c   4.60481061
_cell_angle_alpha   90.00091067
_cell_angle_beta   89.99986995
_cell_angle_gamma   90.00059976
_symmetry_Int_Tables_number   1
_chemical_formula_structural   LiI
_chemical_formula_sum   'Li4 I4'
_cell_volume   278.17343316
_cell_formula_units_Z   4
loop_
 _symmetry_equiv_pos_site_id
 _symmetry_equiv_pos_as_xyz
  1  'x, y, z'
loop_
 _atom_site_type_symbol
 _atom_site_label
 _atom_site_symmetry_multiplicity
 _atom_site_fract_x
 _atom_site_fract_y
 _atom_site_fract_z
 _atom_site_occupancy
  Li  Li0  1  0.85285799  -0.09440019  0.09116954  1
  Li  Li1  1  0.35283098  0.59439333  0.09116000  1
  Li  Li2  1  0.14715151  0.09440222  0.59115610  1
  Li  Li3  1  0.64715913  0.40560894  0.59117841  1
  I  I4  1  0.22845718  0.91787347  0.09107696  1
  I  I5  1  0.72847404  0.58212517  0.09110175  1
  I  I6  1  -0.22846128  0.08212135  0.59109311  1
  I  I7  1  0.27153046  0.41787572  0.59107998  1
