# generated using pymatgen
data_LiBr
_symmetry_space_group_name_H-M   'P 1'
_cell_length_a   8.62873081
_cell_length_b   13.58138802
_cell_length_c   10.54900705
_cell_angle_alpha   89.99888447
_cell_angle_beta   89.99977093
_cell_angle_gamma   90.00000861
_symmetry_Int_Tables_number   1
_chemical_formula_structural   LiBr
_chemical_formula_sum   'Li16 Br16'
_cell_volume   1236.23962558
_cell_formula_units_Z   16
loop_
 _symmetry_equiv_pos_site_id
 _symmetry_equiv_pos_as_xyz
  1  'x, y, z'
loop_
 _atom_site_type_symbol
 _atom_site_label
 _atom_site_symmetry_multiplicity
 _atom_site_fract_x
 _atom_site_fract_y
 _atom_site_fract_z
 _atom_site_occupancy
  Li  Li0  1  0.61953187  0.81987161  0.20675790  1
  Li  Li1  1  0.38046778  0.18013197  0.20675786  1
  Li  Li2  1  0.88046600  0.81987215  0.70676502  1
  Li  Li3  1  0.88046800  0.68013219  0.20675601  1
  Li  Li4  1  0.38046615  0.31987276  0.70676477  1
  Li  Li5  1  0.88046965  0.31986739  0.79324968  1
  Li  Li6  1  0.11953195  0.31987207  0.20675765  1
  Li  Li7  1  0.11953348  0.68012826  0.79323481  1
  Li  Li8  1  0.61953033  0.68013220  0.70674929  1
  Li  Li9  1  0.38046810  0.68012836  0.29324140  1
  Li  Li10  1  0.61953245  0.31986812  0.29324327  1
  Li  Li11  1  0.61953386  0.18012688  0.79323580  1
  Li  Li12  1  0.38047004  0.81986735  0.79325089  1
  Li  Li13  1  0.11953015  0.18013255  0.70675035  1
  Li  Li14  1  0.88046803  0.18012795  0.29324215  1
  Li  Li15  1  0.11953199  0.81986811  0.29324310  1
  Br  Br16  1  0.61192259  0.63636376  0.17761485  1
  Br  Br17  1  0.38807823  0.36364226  0.17762288  1
  Br  Br18  1  0.88807688  0.63636493  0.67761200  1
  Br  Br19  1  0.88807753  0.86364293  0.17762367  1
  Br  Br20  1  0.38807645  0.13636501  0.67761362  1
  Br  Br21  1  0.88807917  0.13635621  0.82237557  1
  Br  Br22  1  0.11192267  0.13636363  0.17761585  1
  Br  Br23  1  0.11192324  0.86363490  0.82238762  1
  Br  Br24  1  0.61192158  0.86364443  0.67762739  1
  Br  Br25  1  0.38807745  0.86363641  0.32238430  1
  Br  Br26  1  0.61192196  0.13635786  0.32237826  1
  Br  Br27  1  0.61192342  0.36363479  0.82238697  1
  Br  Br28  1  0.38807805  0.63635574  0.82237251  1
  Br  Br29  1  0.11192094  0.36364366  0.67762482  1
  Br  Br30  1  0.88807769  0.36363636  0.32238439  1
  Br  Br31  1  0.11192232  0.63635720  0.32237537  1
