# generated using pymatgen
data_LiBr
_symmetry_space_group_name_H-M   'P 1'
_cell_length_a   7.78851281
_cell_length_b   7.78843039
_cell_length_c   11.01673180
_cell_angle_alpha   89.99997763
_cell_angle_beta   89.99995372
_cell_angle_gamma   90.00029092
_symmetry_Int_Tables_number   1
_chemical_formula_structural   LiBr
_chemical_formula_sum   'Li16 Br16'
_cell_volume   668.27814406
_cell_formula_units_Z   16
loop_
 _symmetry_equiv_pos_site_id
 _symmetry_equiv_pos_as_xyz
  1  'x, y, z'
loop_
 _atom_site_type_symbol
 _atom_site_label
 _atom_site_symmetry_multiplicity
 _atom_site_fract_x
 _atom_site_fract_y
 _atom_site_fract_z
 _atom_site_occupancy
  Li  Li0  1  0.00051232  0.24900513  0.53349337  1
  Li  Li1  1  0.74900422  0.00051309  0.78349353  1
  Li  Li2  1  -0.00051138  0.24900431  0.03349252  1
  Li  Li3  1  -0.00051056  0.75099526  0.53349622  1
  Li  Li4  1  0.25099656  -0.00051250  0.78349639  1
  Li  Li5  1  0.75099620  0.50051110  0.78349565  1
  Li  Li6  1  0.24900581  0.49948969  0.78349359  1
  Li  Li7  1  0.25099345  0.00051101  0.28349596  1
  Li  Li8  1  0.74900380  -0.00050958  0.28349294  1
  Li  Li9  1  0.49948877  0.25099346  0.03349620  1
  Li  Li10  1  0.75099607  0.49948902  0.28349766  1
  Li  Li11  1  0.50051310  0.74900059  0.03349557  1
  Li  Li12  1  0.24900415  0.50051238  0.28349351  1
  Li  Li13  1  0.49948902  0.74900577  0.53349478  1
  Li  Li14  1  0.50051040  0.25099385  0.53349508  1
  Li  Li15  1  0.00051052  0.75099568  0.03349511  1
  Br  Br16  1  0.50066286  0.25025069  0.78401141  1
  Br  Br17  1  0.75024667  0.50066129  0.03400906  1
  Br  Br18  1  0.49933642  0.25025272  0.28400662  1
  Br  Br19  1  0.49933664  0.74974959  0.78401028  1
  Br  Br20  1  0.24975361  0.49933739  0.03400815  1
  Br  Br21  1  0.74974817  0.00066332  0.03400682  1
  Br  Br22  1  0.25025153  -0.00066302  0.03400664  1
  Br  Br23  1  0.24974860  0.50066377  0.53400599  1
  Br  Br24  1  0.75025123  0.49933713  0.53400625  1
  Br  Br25  1  -0.00066386  0.24975046  0.28400954  1
  Br  Br26  1  0.74975327  -0.00066234  0.53400727  1
  Br  Br27  1  0.00066259  0.75025032  0.28401135  1
  Br  Br28  1  0.25024629  0.00066186  0.53400873  1
  Br  Br29  1  -0.00066310  0.75025229  0.78400633  1
  Br  Br30  1  0.00066349  0.24974853  0.78400757  1
  Br  Br31  1  0.50066315  0.74974775  0.28400742  1
