# generated using pymatgen
data_LiBr
_symmetry_space_group_name_H-M   'P 1'
_cell_length_a   10.30613379
_cell_length_b   11.58870001
_cell_length_c   8.44298058
_cell_angle_alpha   89.99990849
_cell_angle_beta   89.99993694
_cell_angle_gamma   89.96040587
_symmetry_Int_Tables_number   1
_chemical_formula_structural   LiBr
_chemical_formula_sum   'Li16 Br16'
_cell_volume   1008.38455079
_cell_formula_units_Z   16
loop_
 _symmetry_equiv_pos_site_id
 _symmetry_equiv_pos_as_xyz
  1  'x, y, z'
loop_
 _atom_site_type_symbol
 _atom_site_label
 _atom_site_symmetry_multiplicity
 _atom_site_fract_x
 _atom_site_fract_y
 _atom_site_fract_z
 _atom_site_occupancy
  Li  Li0  1  0.25013518  0.10814518  0.73171070  1
  Li  Li1  1  0.74986414  0.89185507  0.73171082  1
  Li  Li2  1  -0.00014438  0.35815446  0.98148013  1
  Li  Li3  1  0.24986421  0.89185619  0.23171158  1
  Li  Li4  1  0.49985589  0.35815269  0.48147958  1
  Li  Li5  1  0.50014377  0.14184561  0.98148156  1
  Li  Li6  1  0.75013575  0.10814521  0.23171017  1
  Li  Li7  1  0.49985506  0.85815371  0.98148136  1
  Li  Li8  1  0.50014406  0.64184525  0.48148071  1
  Li  Li9  1  0.75013607  0.60814584  0.73171087  1
  Li  Li10  1  0.24986426  0.39185607  0.73171118  1
  Li  Li11  1  -0.00014481  0.85815507  0.48148034  1
  Li  Li12  1  0.00014453  0.14184646  0.48148125  1
  Li  Li13  1  0.00014411  0.64184634  0.98148117  1
  Li  Li14  1  0.25013593  0.60814565  0.23171039  1
  Li  Li15  1  0.74986379  0.39185591  0.23171092  1
  Br  Br16  1  0.94120188  0.24993044  0.23130784  1
  Br  Br17  1  0.05879885  0.75006985  0.23130831  1
  Br  Br18  1  0.30859754  0.49999680  0.48134481  1
  Br  Br19  1  0.55879897  0.75006902  0.73130741  1
  Br  Br20  1  0.80859772  0.49999817  -0.01865370  1
  Br  Br21  1  0.19140210  0.00000200  0.48134491  1
  Br  Br22  1  0.44120171  0.24993016  0.73130866  1
  Br  Br23  1  0.80859788  -0.00000126  0.48134569  1
  Br  Br24  1  0.19140284  0.50000173  -0.01865512  1
  Br  Br25  1  0.44120159  0.74993014  0.23130875  1
  Br  Br26  1  0.55879950  0.25007034  0.23130861  1
  Br  Br27  1  0.30859780  -0.00000222  -0.01865446  1
  Br  Br28  1  0.69140274  0.00000040  -0.01865489  1
  Br  Br29  1  0.69140196  0.49999977  0.48134487  1
  Br  Br30  1  0.94120053  0.74993000  0.73130829  1
  Br  Br31  1  0.05879883  0.25006994  0.73130840  1
