# generated using pymatgen
data_LiBr
_symmetry_space_group_name_H-M   'P 1'
_cell_length_a   11.04829460
_cell_length_b   11.04824651
_cell_length_c   7.15688344
_cell_angle_alpha   89.99998466
_cell_angle_beta   89.99998105
_cell_angle_gamma   90.00001248
_symmetry_Int_Tables_number   1
_chemical_formula_structural   LiBr
_chemical_formula_sum   'Li16 Br16'
_cell_volume   873.59984017
_cell_formula_units_Z   16
loop_
 _symmetry_equiv_pos_site_id
 _symmetry_equiv_pos_as_xyz
  1  'x, y, z'
loop_
 _atom_site_type_symbol
 _atom_site_label
 _atom_site_symmetry_multiplicity
 _atom_site_fract_x
 _atom_site_fract_y
 _atom_site_fract_z
 _atom_site_occupancy
  Li  Li0  1  0.55387307  0.37430939  0.81548028  1
  Li  Li1  1  0.87429855  0.55397791  0.06568130  1
  Li  Li2  1  0.44612674  0.37430957  0.31548066  1
  Li  Li3  1  0.44612699  0.62569045  0.81548016  1
  Li  Li4  1  0.12570138  0.44602247  0.06568064  1
  Li  Li5  1  0.62570117  0.05397751  0.06567947  1
  Li  Li6  1  0.37429864  0.94602256  0.06567963  1
  Li  Li7  1  0.12570113  0.55397762  0.56568021  1
  Li  Li8  1  0.87429884  0.44602188  0.56568117  1
  Li  Li9  1  0.94612685  0.12569030  0.31547893  1
  Li  Li10  1  0.62570122  0.94602262  0.56567981  1
  Li  Li11  1  0.05387343  0.87430966  0.31547946  1
  Li  Li12  1  0.37429872  0.05397729  0.56567970  1
  Li  Li13  1  0.94612676  0.87430957  0.81547971  1
  Li  Li14  1  0.05387297  0.12569023  0.81547896  1
  Li  Li15  1  0.55387308  0.62569046  0.31548001  1
  Br  Br16  1  0.44485268  0.85077123  0.75308516  1
  Br  Br17  1  0.35077945  0.44484043  0.00278154  1
  Br  Br18  1  0.55514719  0.85077132  0.25308503  1
  Br  Br19  1  0.55514703  0.14922868  0.75308514  1
  Br  Br20  1  0.64922068  0.55515954  0.00278155  1
  Br  Br21  1  0.14922048  0.94484051  0.00278080  1
  Br  Br22  1  0.85077927  0.05515993  0.00278042  1
  Br  Br23  1  0.64922071  0.44484049  0.50278180  1
  Br  Br24  1  0.35077930  0.55515971  0.50278141  1
  Br  Br25  1  0.05514757  0.64922894  0.25308589  1
  Br  Br26  1  0.14922067  0.05515969  0.50278062  1
  Br  Br27  1  0.94485261  0.35077133  0.25308608  1
  Br  Br28  1  0.85077942  0.94484018  0.50278077  1
  Br  Br29  1  0.05514764  0.35077102  0.75308589  1
  Br  Br30  1  0.94485286  0.64922870  0.75308638  1
  Br  Br31  1  0.44485286  0.14922880  0.25308526  1
