# generated using pymatgen
data_LiI
_symmetry_space_group_name_H-M   'P 1'
_cell_length_a   12.58741258
_cell_length_b   12.58741413
_cell_length_c   8.67073477
_cell_angle_alpha   90.00971286
_cell_angle_beta   89.99038276
_cell_angle_gamma   120.00606241
_symmetry_Int_Tables_number   1
_chemical_formula_structural   LiI
_chemical_formula_sum   'Li18 I18'
_cell_volume   1189.68772154
_cell_formula_units_Z   18
loop_
 _symmetry_equiv_pos_site_id
 _symmetry_equiv_pos_as_xyz
  1  'x, y, z'
loop_
 _atom_site_type_symbol
 _atom_site_label
 _atom_site_symmetry_multiplicity
 _atom_site_fract_x
 _atom_site_fract_y
 _atom_site_fract_z
 _atom_site_occupancy
  Li  Li0  1  0.79895130  0.59595671  0.38332043  1
  Li  Li1  1  0.79886670  0.20293614  0.88337595  1
  Li  Li2  1  0.73738064  0.86771907  0.54998554  1
  Li  Li3  1  0.13036517  0.26257970  0.55004102  1
  Li  Li4  1  0.07075489  0.53630158  0.71671066  1
  Li  Li5  1  0.40408473  0.20296695  0.38337444  1
  Li  Li6  1  0.13039665  0.86779658  0.05004218  1
  Li  Li7  1  0.73741902  0.86963297  0.05004157  1
  Li  Li8  1  0.79706251  0.20113414  0.38337432  1
  Li  Li9  1  0.79703281  0.59591193  0.88337756  1
  Li  Li10  1  0.13228406  0.26262048  0.04998072  1
  Li  Li11  1  0.13219756  0.86960224  0.55004310  1
  Li  Li12  1  0.46373309  0.53446835  0.71670652  1
  Li  Li13  1  0.46369747  0.92924638  0.21670613  1
  Li  Li14  1  0.40404590  0.20104979  0.88331755  1
  Li  Li15  1  0.07071144  0.53438086  0.21665603  1
  Li  Li16  1  0.46561837  0.92929071  0.71664958  1
  Li  Li17  1  0.46553341  0.53626925  0.21670955  1
  I  I18  1  0.88135154  0.12072977  0.12381380  1
  I  I19  1  0.88131744  0.76062612  0.62387918  1
  I  I20  1  0.21260166  0.78531452  0.29048242  1
  I  I21  1  0.57266731  0.78735978  0.29051807  1
  I  I22  1  0.54597326  0.09399989  0.45718218  1
  I  I23  1  -0.12069321  0.76066509  0.12385326  1
  I  I24  1  0.57270758  0.78534905  0.79054091  1
  I  I25  1  0.21264270  0.42733339  0.79051572  1
  I  I26  1  0.23937362  0.11867976  0.12387259  1
  I  I27  1  0.23933288  0.12069223  0.62385022  1
  I  I28  1  0.21468555  0.78739896  0.79048052  1
  I  I29  1  0.21465092  0.42729016  0.29053987  1
  I  I30  1  0.90604072  0.45201537  0.45721107  1
  I  I31  1  0.90600255  0.45402549  -0.04281356  1
  I  I32  1  -0.12073088  0.11864956  0.62381341  1
  I  I33  1  0.54593608  0.45198233  -0.04285257  1
  I  I34  1  0.54801817  0.45406421  0.45714627  1
  I  I35  1  0.54798640  0.09396048  -0.04279290  1
