# generated using pymatgen
data_NaI
_symmetry_space_group_name_H-M   'P 1'
_cell_length_a   7.88384727
_cell_length_b   7.88384540
_cell_length_c   13.93965829
_cell_angle_alpha   89.99990606
_cell_angle_beta   89.99990484
_cell_angle_gamma   90.00000785
_symmetry_Int_Tables_number   1
_chemical_formula_structural   NaI
_chemical_formula_sum   'Na8 I8'
_cell_volume   866.41992163
_cell_formula_units_Z   8
loop_
 _symmetry_equiv_pos_site_id
 _symmetry_equiv_pos_as_xyz
  1  'x, y, z'
loop_
 _atom_site_type_symbol
 _atom_site_label
 _atom_site_symmetry_multiplicity
 _atom_site_fract_x
 _atom_site_fract_y
 _atom_site_fract_z
 _atom_site_occupancy
  Na  Na0  1  0.56487658  0.87673241  0.50770828  1
  Na  Na1  1  0.87673267  0.56487651  0.49229050  1
  Na  Na2  1  0.06487642  0.62326750  0.24229143  1
  Na  Na3  1  0.12326762  0.43512344  0.99229174  1
  Na  Na4  1  0.93512324  0.37673258  0.74229075  1
  Na  Na5  1  0.43512344  0.12326730  0.00770953  1
  Na  Na6  1  0.37673248  0.93512362  0.25770855  1
  Na  Na7  1  0.62326745  0.06487673  0.75770922  1
  I  I8  1  0.20766203  0.76918658  0.43622746  1
  I  I9  1  0.76918689  0.20766109  0.56377240  1
  I  I10  1  0.70766092  0.73081319  0.31377241  1
  I  I11  1  0.23081334  0.79233798  0.06377255  1
  I  I12  1  0.29233779  0.26918657  0.81377252  1
  I  I13  1  0.79233889  0.23081320  0.93622761  1
  I  I14  1  0.26918688  0.29233909  0.18622758  1
  I  I15  1  0.73081336  0.70766220  0.68622747  1
