# generated using pymatgen
data_LiI
_symmetry_space_group_name_H-M   'P 1'
_cell_length_a   7.39999429
_cell_length_b   4.26936785
_cell_length_c   6.72186800
_cell_angle_alpha   89.99999658
_cell_angle_beta   89.99999691
_cell_angle_gamma   89.99927311
_symmetry_Int_Tables_number   1
_chemical_formula_structural   LiI
_chemical_formula_sum   'Li4 I4'
_cell_volume   212.36597697
_cell_formula_units_Z   4
loop_
 _symmetry_equiv_pos_site_id
 _symmetry_equiv_pos_as_xyz
  1  'x, y, z'
loop_
 _atom_site_type_symbol
 _atom_site_label
 _atom_site_symmetry_multiplicity
 _atom_site_fract_x
 _atom_site_fract_y
 _atom_site_fract_z
 _atom_site_occupancy
  Li  Li0  1  0.50085903  -0.00029033  0.65957584  1
  Li  Li1  1  0.00086255  0.50026698  0.65956519  1
  Li  Li2  1  0.49914111  0.00028982  0.15957565  1
  Li  Li3  1  -0.00086275  0.49973312  0.15956583  1
  I  I4  1  0.83383190  0.00122712  0.90986519  1
  I  I5  1  0.33383202  0.49877398  0.90986582  1
  I  I6  1  0.16616818  -0.00122682  0.40986524  1
  I  I7  1  0.66616796  0.50122614  0.40986575  1
