# generated using pymatgen
data_KI
_symmetry_space_group_name_H-M   'P 1'
_cell_length_a   8.62139355
_cell_length_b   4.98064692
_cell_length_c   8.66873572
_cell_angle_alpha   89.99992923
_cell_angle_beta   90.00013393
_cell_angle_gamma   90.00002650
_symmetry_Int_Tables_number   1
_chemical_formula_structural   KI
_chemical_formula_sum   'K4 I4'
_cell_volume   372.23652760
_cell_formula_units_Z   4
loop_
 _symmetry_equiv_pos_site_id
 _symmetry_equiv_pos_as_xyz
  1  'x, y, z'
loop_
 _atom_site_type_symbol
 _atom_site_label
 _atom_site_symmetry_multiplicity
 _atom_site_fract_x
 _atom_site_fract_y
 _atom_site_fract_z
 _atom_site_occupancy
  K  K0  1  0.25128656  0.25195299  0.84621452  1
  K  K1  1  0.75128778  0.74804513  0.84621451  1
  K  K2  1  0.74871223  0.74804620  0.34621383  1
  K  K3  1  0.24871313  0.25195574  0.34621559  1
  I  I4  1  0.58312883  0.24827615  0.09634585  1
  I  I5  1  0.08312989  0.75172415  0.09634518  1
  I  I6  1  0.41687131  0.75172459  0.59634695  1
  I  I7  1  0.91687028  0.24827504  0.59634424  1
