# generated using pymatgen
data_LiBr
_symmetry_space_group_name_H-M   'P 1'
_cell_length_a   10.71977756
_cell_length_b   10.71790035
_cell_length_c   7.16210830
_cell_angle_alpha   89.99995624
_cell_angle_beta   89.99993887
_cell_angle_gamma   90.00002652
_symmetry_Int_Tables_number   1
_chemical_formula_structural   LiBr
_chemical_formula_sum   'Li16 Br16'
_cell_volume   822.87974406
_cell_formula_units_Z   16
loop_
 _symmetry_equiv_pos_site_id
 _symmetry_equiv_pos_as_xyz
  1  'x, y, z'
loop_
 _atom_site_type_symbol
 _atom_site_label
 _atom_site_symmetry_multiplicity
 _atom_site_fract_x
 _atom_site_fract_y
 _atom_site_fract_z
 _atom_site_occupancy
  Li  Li0  1  0.54614240  0.87257401  0.13467042  1
  Li  Li1  1  0.37261718  0.54605529  0.38346098  1
  Li  Li2  1  0.45385952  0.87257376  0.63467093  1
  Li  Li3  1  0.45385788  0.12742540  0.13466858  1
  Li  Li4  1  0.62738233  0.45394499  0.38345846  1
  Li  Li5  1  0.12738332  0.04605560  0.38346144  1
  Li  Li6  1  0.87261718  0.95394458  0.38345989  1
  Li  Li7  1  0.62738316  0.54605556  0.88346100  1
  Li  Li8  1  0.37261712  0.45394455  0.88346019  1
  Li  Li9  1  0.95385888  0.62742619  0.63466963  1
  Li  Li10  1  0.12738243  0.95394391  0.88346035  1
  Li  Li11  1  0.04614119  0.37257361  0.63467064  1
  Li  Li12  1  0.87261695  0.04605633  0.88346244  1
  Li  Li13  1  0.95386017  0.37257406  0.13466945  1
  Li  Li14  1  0.04614023  0.62742642  0.13467083  1
  Li  Li15  1  0.54614081  0.12742694  0.63467229  1
  Br  Br16  1  0.15900135  0.45768061  0.32831643  1
  Br  Br17  1  0.95789628  0.15903558  0.57769765  1
  Br  Br18  1  0.84099863  0.45768020  0.82831566  1
  Br  Br19  1  0.84099838  0.54231951  0.32831518  1
  Br  Br20  1  0.04210404  0.84096387  0.57769571  1
  Br  Br21  1  0.54210367  0.65903567  0.57769681  1
  Br  Br22  1  0.45789614  0.34096460  0.57769543  1
  Br  Br23  1  0.04210442  0.15903579  0.07769739  1
  Br  Br24  1  0.95789517  0.84096406  0.07769588  1
  Br  Br25  1  0.34099780  0.04232026  0.82831394  1
  Br  Br26  1  0.54210339  0.34096344  0.07769496  1
  Br  Br27  1  0.65900151  0.95768016  0.82831579  1
  Br  Br28  1  0.45789703  0.65903571  0.07769705  1
  Br  Br29  1  0.34099852  0.95767985  0.32831469  1
  Br  Br30  1  0.65900152  0.04231985  0.32831613  1
  Br  Br31  1  0.15900138  0.54231965  0.82831668  1
