# generated using pymatgen
data_NaBr
_symmetry_space_group_name_H-M   'P 1'
_cell_length_a   4.12388239
_cell_length_b   14.10968540
_cell_length_c   4.21259816
_cell_angle_alpha   90.00033899
_cell_angle_beta   90.17407544
_cell_angle_gamma   89.99083381
_symmetry_Int_Tables_number   1
_chemical_formula_structural   NaBr
_chemical_formula_sum   'Na4 Br4'
_cell_volume   245.11598041
_cell_formula_units_Z   4
loop_
 _symmetry_equiv_pos_site_id
 _symmetry_equiv_pos_as_xyz
  1  'x, y, z'
loop_
 _atom_site_type_symbol
 _atom_site_label
 _atom_site_symmetry_multiplicity
 _atom_site_fract_x
 _atom_site_fract_y
 _atom_site_fract_z
 _atom_site_occupancy
  Na  Na0  1  0.14269552  0.84843378  0.85918457  1
  Na  Na1  1  0.64269318  0.34843378  0.85918440  1
  Na  Na2  1  0.14275047  0.15156600  0.35918070  1
  Na  Na3  1  0.64275289  0.65156580  0.35918105  1
  Br  Br4  1  0.64388919  0.13690684  0.85954335  1
  Br  Br5  1  0.14389115  0.63690676  0.85954343  1
  Br  Br6  1  0.64381847  0.86309346  0.35954272  1
  Br  Br7  1  0.14381642  0.36309359  0.35954273  1
