# generated using pymatgen
data_LiI
_symmetry_space_group_name_H-M   'P 1'
_cell_length_a   15.44746298
_cell_length_b   15.44731813
_cell_length_c   5.39122609
_cell_angle_alpha   89.99986138
_cell_angle_beta   89.99999005
_cell_angle_gamma   89.99950406
_symmetry_Int_Tables_number   1
_chemical_formula_structural   LiI
_chemical_formula_sum   'Li16 I16'
_cell_volume   1286.46447796
_cell_formula_units_Z   16
loop_
 _symmetry_equiv_pos_site_id
 _symmetry_equiv_pos_as_xyz
  1  'x, y, z'
loop_
 _atom_site_type_symbol
 _atom_site_label
 _atom_site_symmetry_multiplicity
 _atom_site_fract_x
 _atom_site_fract_y
 _atom_site_fract_z
 _atom_site_occupancy
  Li  Li0  1  0.92620010  0.57433755  -0.04098010  1
  Li  Li1  1  0.07434140  0.92620278  0.20902433  1
  Li  Li2  1  0.07379733  0.57433842  0.45902062  1
  Li  Li3  1  0.07379826  0.42565891  -0.04097848  1
  Li  Li4  1  0.92565919  0.07379772  0.20902422  1
  Li  Li5  1  0.42566333  0.42620058  0.20902758  1
  Li  Li6  1  0.57433676  0.57380056  0.20902768  1
  Li  Li7  1  0.92566433  0.92619834  0.70902371  1
  Li  Li8  1  0.07433682  0.07380125  0.70902370  1
  Li  Li9  1  0.57379996  0.92566168  0.45902126  1
  Li  Li10  1  0.42565946  0.57379953  0.70902583  1
  Li  Li11  1  0.42620091  0.07434008  0.45902055  1
  Li  Li12  1  0.57434122  0.42620236  0.70902603  1
  Li  Li13  1  0.57379730  0.07434062  -0.04097601  1
  Li  Li14  1  0.42620214  0.92566098  -0.04097742  1
  Li  Li15  1  0.92620168  0.42565880  0.45902190  1
  I  I16  1  0.89343982  0.60611466  0.45882184  1
  I  I17  1  0.10612098  0.89344344  0.70882705  1
  I  I18  1  0.10655790  0.60611411  0.95882348  1
  I  I19  1  0.10655890  0.39388248  0.45882411  1
  I  I20  1  0.89388043  0.10655567  0.70882689  1
  I  I21  1  0.39388691  0.39344234  0.70882676  1
  I  I22  1  0.60611340  0.60656006  0.70882517  1
  I  I23  1  0.89388824  0.89343865  0.20882393  1
  I  I24  1  0.10611252  0.10656097  0.20882262  1
  I  I25  1  0.60656062  0.89388500  0.95882511  1
  I  I26  1  0.39388074  0.60655975  0.20882960  1
  I  I27  1  0.39343933  0.10611632  0.95882292  1
  I  I28  1  0.60611879  0.39344247  0.20882967  1
  I  I29  1  0.60655745  0.10611693  0.45882262  1
  I  I30  1  0.39344283  0.89388435  0.45882475  1
  I  I31  1  0.89344094  0.39388266  0.95882375  1
