# generated using pymatgen
data_LiBr
_symmetry_space_group_name_H-M   'P 1'
_cell_length_a   3.92669085
_cell_length_b   3.92666934
_cell_length_c   10.75852207
_cell_angle_alpha   89.99949522
_cell_angle_beta   89.99978409
_cell_angle_gamma   89.99975305
_symmetry_Int_Tables_number   1
_chemical_formula_structural   LiBr
_chemical_formula_sum   'Li4 Br4'
_cell_volume   165.88367845
_cell_formula_units_Z   4
loop_
 _symmetry_equiv_pos_site_id
 _symmetry_equiv_pos_as_xyz
  1  'x, y, z'
loop_
 _atom_site_type_symbol
 _atom_site_label
 _atom_site_symmetry_multiplicity
 _atom_site_fract_x
 _atom_site_fract_y
 _atom_site_fract_z
 _atom_site_occupancy
  Li  Li0  1  -0.00051166  0.50033949  0.28791360  1
  Li  Li1  1  0.50033689  0.00050734  0.53791488  1
  Li  Li2  1  0.00050696  0.49966314  0.78791320  1
  Li  Li3  1  0.49966397  -0.00051160  0.03791516  1
  Br  Br4  1  0.50033740  0.00088863  0.78829372  1
  Br  Br5  1  0.00088785  0.49966460  0.03829361  1
  Br  Br6  1  0.49966458  -0.00088784  0.28829310  1
  Br  Br7  1  -0.00088598  0.50033624  0.53829253  1
