# generated using pymatgen
data_LiI
_symmetry_space_group_name_H-M   'P 1'
_cell_length_a   7.85606306
_cell_length_b   4.71006191
_cell_length_c   7.90801125
_cell_angle_alpha   90.00005870
_cell_angle_beta   97.71118250
_cell_angle_gamma   89.99980222
_symmetry_Int_Tables_number   1
_chemical_formula_structural   LiI
_chemical_formula_sum   'Li4 I4'
_cell_volume   289.97040725
_cell_formula_units_Z   4
loop_
 _symmetry_equiv_pos_site_id
 _symmetry_equiv_pos_as_xyz
  1  'x, y, z'
loop_
 _atom_site_type_symbol
 _atom_site_label
 _atom_site_symmetry_multiplicity
 _atom_site_fract_x
 _atom_site_fract_y
 _atom_site_fract_z
 _atom_site_occupancy
  Li  Li0  1  0.63802804  0.49525986  0.84812407  1
  Li  Li1  1  0.36197193  -0.00473722  0.65187538  1
  Li  Li2  1  0.36197182  0.50474030  0.15187459  1
  Li  Li3  1  0.63802697  0.00473745  0.34812325  1
  I  I4  1  0.27422891  0.49544031  0.80205973  1
  I  I5  1  0.72577257  -0.00456442  0.69794211  1
  I  I6  1  0.72577153  0.50455956  0.19794112  1
  I  I7  1  0.27422823  0.00456416  0.30205976  1
