# generated using pymatgen
data_LiBr
_symmetry_space_group_name_H-M   'P 1'
_cell_length_a   11.58050613
_cell_length_b   11.58052764
_cell_length_c   7.73737334
_cell_angle_alpha   89.98625377
_cell_angle_beta   90.01349030
_cell_angle_gamma   119.99657890
_symmetry_Int_Tables_number   1
_chemical_formula_structural   LiBr
_chemical_formula_sum   'Li18 Br18'
_cell_volume   898.65920487
_cell_formula_units_Z   18
loop_
 _symmetry_equiv_pos_site_id
 _symmetry_equiv_pos_as_xyz
  1  'x, y, z'
loop_
 _atom_site_type_symbol
 _atom_site_label
 _atom_site_symmetry_multiplicity
 _atom_site_fract_x
 _atom_site_fract_y
 _atom_site_fract_z
 _atom_site_occupancy
  Li  Li0  1  0.13012853  0.87166238  0.89973822  1
  Li  Li1  1  0.13018294  0.25850033  0.39963442  1
  Li  Li2  1  0.46174740  0.53642362  0.06685811  1
  Li  Li3  1  0.07470956  0.53828426  0.06691427  1
  Li  Li4  1  0.79498272  0.59176901  0.23201151  1
  Li  Li5  1  0.12829624  0.25844001  0.89964755  1
  Li  Li6  1  0.07467165  0.53641533  0.56691139  1
  Li  Li7  1  0.46171455  0.92529038  0.56691101  1
  Li  Li8  1  0.74149750  0.86981914  0.89963517  1
  Li  Li9  1  0.74156141  0.87170356  0.39964927  1
  Li  Li10  1  0.46357769  0.53825434  0.56685858  1
  Li  Li11  1  0.46358411  0.92532909  0.06690774  1
  Li  Li12  1  0.40819558  0.20318437  0.23198407  1
  Li  Li13  1  0.40822968  0.20501688  0.73201916  1
  Li  Li14  1  0.12833952  0.86986971  0.39973879  1
  Li  Li15  1  0.79500879  0.20319986  0.73204614  1
  Li  Li16  1  0.79680041  0.20499265  0.23204763  1
  Li  Li17  1  0.79681625  0.59180311  0.73197727  1
  Br  Br18  1  0.21396457  0.78723864  0.14046601  1
  Br  Br19  1  0.21402899  0.42678843  0.64040629  1
  Br  Br20  1  0.54607574  0.45248143  0.30727718  1
  Br  Br21  1  0.90637906  0.45391896  0.30737623  1
  Br  Br22  1  0.87936525  0.76004822  0.47328044  1
  Br  Br23  1  0.21276937  0.42676873  0.14042722  1
  Br  Br24  1  0.90634915  0.45241114  0.80735456  1
  Br  Br25  1  0.54608077  0.09362142  0.80737442  1
  Br  Br26  1  0.57321095  0.78597285  0.14040807  1
  Br  Br27  1  0.57323165  0.78723145  0.64042679  1
  Br  Br28  1  0.54751794  0.45392374  0.80727639  1
  Br  Br29  1  0.54758904  0.09365079  0.30735208  1
  Br  Br30  1  0.23995186  0.11929913  0.47325167  1
  Br  Br31  1  0.23995120  0.12063540  -0.02671271  1
  Br  Br32  1  0.21276135  0.78603357  0.64046690  1
  Br  Br33  1  0.87935776  0.11932862  -0.02674904  1
  Br  Br34  1  -0.11932791  0.12064167  0.47325037  1
  Br  Br35  1  -0.11930130  0.76004781  -0.02675659  1
