# generated using pymatgen
data_LiBr
_symmetry_space_group_name_H-M   'P 1'
_cell_length_a   4.16620457
_cell_length_b   4.16685529
_cell_length_c   10.20258909
_cell_angle_alpha   89.99726584
_cell_angle_beta   90.00512524
_cell_angle_gamma   120.01026829
_symmetry_Int_Tables_number   1
_chemical_formula_structural   LiBr
_chemical_formula_sum   'Li3 Br3'
_cell_volume   153.37164991
_cell_formula_units_Z   3
loop_
 _symmetry_equiv_pos_site_id
 _symmetry_equiv_pos_as_xyz
  1  'x, y, z'
loop_
 _atom_site_type_symbol
 _atom_site_label
 _atom_site_symmetry_multiplicity
 _atom_site_fract_x
 _atom_site_fract_y
 _atom_site_fract_z
 _atom_site_occupancy
  Li  Li0  1  0.66147247  0.00139814  0.06357956  1
  Li  Li1  1  -0.00141607  0.65989570  0.73026046  1
  Li  Li2  1  0.33994525  0.33873362  0.39694643  1
  Br  Br3  1  0.00598072  0.67116393  0.48061378  1
  Br  Br4  1  0.32897502  0.33491798  0.14726712  1
  Br  Br5  1  0.66504261  -0.00610936  0.81377143  1
