# generated using pymatgen
data_LiI
_symmetry_space_group_name_H-M   'P 1'
_cell_length_a   7.45485535
_cell_length_b   4.34350528
_cell_length_c   6.98726669
_cell_angle_alpha   89.99989694
_cell_angle_beta   110.16120184
_cell_angle_gamma   90.00010401
_symmetry_Int_Tables_number   1
_chemical_formula_structural   LiI
_chemical_formula_sum   'Li4 I4'
_cell_volume   212.38607164
_cell_formula_units_Z   4
loop_
 _symmetry_equiv_pos_site_id
 _symmetry_equiv_pos_as_xyz
  1  'x, y, z'
loop_
 _atom_site_type_symbol
 _atom_site_label
 _atom_site_symmetry_multiplicity
 _atom_site_fract_x
 _atom_site_fract_y
 _atom_site_fract_z
 _atom_site_occupancy
  Li  Li0  1  0.88326253  0.25269893  0.19304976  1
  Li  Li1  1  0.38326219  0.75269821  0.19304982  1
  Li  Li2  1  0.88326279  0.74730025  0.69304989  1
  Li  Li3  1  0.38326200  0.24730161  0.69304986  1
  I  I4  1  0.13255144  0.75004338  0.44159608  1
  I  I5  1  0.63255160  0.25004316  0.44159618  1
  I  I6  1  0.13255148  0.24995689  0.94159610  1
  I  I7  1  0.63255161  0.74995756  0.94159608  1
