# generated using pymatgen
data_LiBr
_symmetry_space_group_name_H-M   'P 1'
_cell_length_a   4.41656491
_cell_length_b   6.59672187
_cell_length_c   6.82865666
_cell_angle_alpha   89.99983542
_cell_angle_beta   90.16487652
_cell_angle_gamma   90.00011614
_symmetry_Int_Tables_number   1
_chemical_formula_structural   LiBr
_chemical_formula_sum   'Li4 Br4'
_cell_volume   198.95106603
_cell_formula_units_Z   4
loop_
 _symmetry_equiv_pos_site_id
 _symmetry_equiv_pos_as_xyz
  1  'x, y, z'
loop_
 _atom_site_type_symbol
 _atom_site_label
 _atom_site_symmetry_multiplicity
 _atom_site_fract_x
 _atom_site_fract_y
 _atom_site_fract_z
 _atom_site_occupancy
  Li  Li0  1  0.55740603  0.67258579  0.13819504  1
  Li  Li1  1  0.05740068  0.17258481  0.13818771  1
  Li  Li2  1  0.55738478  0.32741472  0.63818437  1
  Li  Li3  1  0.05737968  0.82741590  0.63817861  1
  Br  Br4  1  0.05797100  0.18574467  0.76463445  1
  Br  Br5  1  0.55796892  0.68574477  0.76463378  1
  Br  Br6  1  0.05799081  0.81425455  0.26463374  1
  Br  Br7  1  0.55798900  0.31425480  0.26463333  1
