# generated using pymatgen
data_LiBr
_symmetry_space_group_name_H-M   'P 1'
_cell_length_a   8.11246117
_cell_length_b   8.11243427
_cell_length_c   11.29324054
_cell_angle_alpha   89.99988855
_cell_angle_beta   89.99967895
_cell_angle_gamma   89.99997684
_symmetry_Int_Tables_number   1
_chemical_formula_structural   LiBr
_chemical_formula_sum   'Li16 Br16'
_cell_volume   743.22857825
_cell_formula_units_Z   16
loop_
 _symmetry_equiv_pos_site_id
 _symmetry_equiv_pos_as_xyz
  1  'x, y, z'
loop_
 _atom_site_type_symbol
 _atom_site_label
 _atom_site_symmetry_multiplicity
 _atom_site_fract_x
 _atom_site_fract_y
 _atom_site_fract_z
 _atom_site_occupancy
  Li  Li0  1  0.30923604  0.38142020  0.75382916  1
  Li  Li1  1  0.11857996  0.80923894  0.74616876  1
  Li  Li2  1  0.30874622  0.88038199  0.49643860  1
  Li  Li3  1  0.69076238  0.61857725  0.75383043  1
  Li  Li4  1  0.88142187  0.19076254  0.74617117  1
  Li  Li5  1  0.61962098  0.80874783  0.00356437  1
  Li  Li6  1  0.38037891  0.19125094  0.00356373  1
  Li  Li7  1  0.11962117  0.30874668  0.50356469  1
  Li  Li8  1  0.88037978  0.69125172  0.50356453  1
  Li  Li9  1  0.19076243  0.11858056  0.25382997  1
  Li  Li10  1  0.38141605  0.69075828  0.24616740  1
  Li  Li11  1  0.80923829  0.88141802  0.25382967  1
  Li  Li12  1  0.61858017  0.30923994  0.24616992  1
  Li  Li13  1  0.80874973  0.38037793  -0.00356413  1
  Li  Li14  1  0.19125198  0.61962109  -0.00356350  1
  Li  Li15  1  0.69125372  0.11962231  0.49643688  1
  Br  Br16  1  0.91949088  0.21030675  0.34564000  1
  Br  Br17  1  0.28969694  0.41949561  0.15436001  1
  Br  Br18  1  0.91926851  0.71008481  0.90445107  1
  Br  Br19  1  0.08050662  0.78969554  0.34564007  1
  Br  Br20  1  0.71030459  0.58050851  0.15436139  1
  Br  Br21  1  0.78991481  0.41926740  0.59554866  1
  Br  Br22  1  0.21008508  0.58073374  0.59555014  1
  Br  Br23  1  0.28991541  0.91926518  0.09554817  1
  Br  Br24  1  0.71008357  0.08073195  0.09554861  1
  Br  Br25  1  0.58051140  0.28969514  0.84564006  1
  Br  Br26  1  0.21030636  0.08050623  0.65435685  1
  Br  Br27  1  0.41948884  0.71030655  0.84564075  1
  Br  Br28  1  0.78969350  0.91948881  0.65435701  1
  Br  Br29  1  0.41926859  0.21008468  0.40445193  1
  Br  Br30  1  0.58073690  0.78991573  0.40445207  1
  Br  Br31  1  0.08072831  0.28991717  0.90445156  1
