# generated using pymatgen
data_LiI
_symmetry_space_group_name_H-M   'P 1'
_cell_length_a   11.50089100
_cell_length_b   11.50096160
_cell_length_c   4.40506224
_cell_angle_alpha   89.99982873
_cell_angle_beta   90.00017401
_cell_angle_gamma   89.99969780
_symmetry_Int_Tables_number   1
_chemical_formula_structural   LiI
_chemical_formula_sum   'Li8 I8'
_cell_volume   582.66333374
_cell_formula_units_Z   8
loop_
 _symmetry_equiv_pos_site_id
 _symmetry_equiv_pos_as_xyz
  1  'x, y, z'
loop_
 _atom_site_type_symbol
 _atom_site_label
 _atom_site_symmetry_multiplicity
 _atom_site_fract_x
 _atom_site_fract_y
 _atom_site_fract_z
 _atom_site_occupancy
  Li  Li0  1  0.62772417  0.16369458  0.53574850  1
  Li  Li1  1  0.16369282  0.62771543  0.46426587  1
  Li  Li2  1  0.12772956  0.33629881  0.21425332  1
  Li  Li3  1  0.83630620  0.37228617  -0.03573609  1
  Li  Li4  1  0.87227449  0.66369864  0.71425594  1
  Li  Li5  1  0.37227803  0.83630811  0.03572933  1
  Li  Li6  1  0.66369737  0.87227125  0.28573700  1
  Li  Li7  1  0.33630183  0.12772670  0.78574764  1
  I  I8  1  0.02064777  0.25099177  0.72321850  1
  I  I9  1  0.25098706  0.02065257  0.27678089  1
  I  I10  1  0.52065112  0.24901226  0.02677938  1
  I  I11  1  0.74901216  0.97934530  0.77677111  1
  I  I12  1  0.47934771  0.75098571  0.52676686  1
  I  I13  1  0.97935124  0.74901108  0.22322184  1
  I  I14  1  0.75098310  0.47935519  0.47322862  1
  I  I15  1  0.24901537  0.52064644  -0.02676872  1
