# generated using pymatgen
data_NaI
_symmetry_space_group_name_H-M   'P 1'
_cell_length_a   9.22369374
_cell_length_b   4.62151107
_cell_length_c   6.53495100
_cell_angle_alpha   90.00000643
_cell_angle_beta   90.00013409
_cell_angle_gamma   90.00000468
_symmetry_Int_Tables_number   1
_chemical_formula_structural   NaI
_chemical_formula_sum   'Na4 I4'
_cell_volume   278.56798814
_cell_formula_units_Z   4
loop_
 _symmetry_equiv_pos_site_id
 _symmetry_equiv_pos_as_xyz
  1  'x, y, z'
loop_
 _atom_site_type_symbol
 _atom_site_label
 _atom_site_symmetry_multiplicity
 _atom_site_fract_x
 _atom_site_fract_y
 _atom_site_fract_z
 _atom_site_occupancy
  Na  Na0  1  0.37547756  0.74952019  0.47797315  1
  Na  Na1  1  0.87547703  0.75047908  0.47797327  1
  Na  Na2  1  0.62452233  0.25048329  0.97791177  1
  Na  Na3  1  0.12452214  0.24951635  0.97791156  1
  I  I4  1  0.12533209  0.25120276  0.47682531  1
  I  I5  1  0.62533241  0.24879769  0.47682483  1
  I  I6  1  0.87466822  0.74879554  -0.02317092  1
  I  I7  1  0.37466822  0.75120509  -0.02317038  1
