# generated using pymatgen
data_LiBr
_symmetry_space_group_name_H-M   'P 1'
_cell_length_a   4.34812323
_cell_length_b   9.23751569
_cell_length_c   5.26297447
_cell_angle_alpha   89.99999936
_cell_angle_beta   89.99999150
_cell_angle_gamma   90.00001414
_symmetry_Int_Tables_number   1
_chemical_formula_structural   LiBr
_chemical_formula_sum   'Li4 Br4'
_cell_volume   211.39187746
_cell_formula_units_Z   4
loop_
 _symmetry_equiv_pos_site_id
 _symmetry_equiv_pos_as_xyz
  1  'x, y, z'
loop_
 _atom_site_type_symbol
 _atom_site_label
 _atom_site_symmetry_multiplicity
 _atom_site_fract_x
 _atom_site_fract_y
 _atom_site_fract_z
 _atom_site_occupancy
  Li  Li0  1  0.50248210  0.61182379  0.54817265  1
  Li  Li1  1  0.49751713  0.11182374  0.95182764  1
  Li  Li2  1  -0.00248226  0.38817623  0.04817264  1
  Li  Li3  1  0.00248303  0.88817634  0.45182714  1
  Br  Br4  1  -0.00179415  0.12291833  0.20394151  1
  Br  Br5  1  0.00179415  0.62291839  0.29605867  1
  Br  Br6  1  0.50179424  0.87708166  0.70394139  1
  Br  Br7  1  0.49820576  0.37708151  0.79605836  1
