# generated using pymatgen
data_LiI
_symmetry_space_group_name_H-M   'P 1'
_cell_length_a   12.51745283
_cell_length_b   12.51737683
_cell_length_c   9.03099017
_cell_angle_alpha   89.99871889
_cell_angle_beta   90.00182398
_cell_angle_gamma   120.01384675
_symmetry_Int_Tables_number   1
_chemical_formula_structural   LiI
_chemical_formula_sum   'Li18 I18'
_cell_volume   1225.27811770
_cell_formula_units_Z   18
loop_
 _symmetry_equiv_pos_site_id
 _symmetry_equiv_pos_as_xyz
  1  'x, y, z'
loop_
 _atom_site_type_symbol
 _atom_site_label
 _atom_site_symmetry_multiplicity
 _atom_site_fract_x
 _atom_site_fract_y
 _atom_site_fract_z
 _atom_site_occupancy
  Li  Li0  1  0.33116960  0.27211559  0.27083409  1
  Li  Li1  1  0.33119911  0.05917828  0.77084105  1
  Li  Li2  1  0.06122385  0.33551300  0.43749581  1
  Li  Li3  1  0.27423812  0.93866702  0.43752024  1
  Li  Li4  1  0.39466561  0.39243221  0.60419389  1
  Li  Li5  1  0.72799330  0.05909613  0.27084919  1
  Li  Li6  1  0.27415026  0.33546735  0.93750997  1
  Li  Li7  1  0.06132685  0.72575297  0.93751399  1
  Li  Li8  1  -0.05917970  0.66880918  0.27084054  1
  Li  Li9  1  -0.05909019  0.27199747  0.77085185  1
  Li  Li10  1  0.66449609  0.93877406  0.93750065  1
  Li  Li11  1  0.66453851  0.72585588  0.43751225  1
  Li  Li12  1  0.60749043  0.00213615  0.60417319  1
  Li  Li13  1  0.60757724  0.60533355  0.10419454  1
  Li  Li14  1  0.72788498  0.66882635  0.77082904  1
  Li  Li15  1  0.39455316  0.00216788  0.10416714  1
  Li  Li16  1  0.99782771  0.60544448  0.60415829  1
  Li  Li17  1  0.99786404  0.39251479  0.10416471  1
  I  I18  1  0.24423377  0.13714486  0.53254868  1
  I  I19  1  0.24415954  0.10700464  0.03260824  1
  I  I20  1  0.19619078  0.42243868  0.69921109  1
  I  I21  1  0.22627631  0.80382033  0.69923058  1
  I  I22  1  0.52950541  0.44038586  0.86590634  1
  I  I23  1  0.86283963  0.10705661  0.53255242  1
  I  I24  1  0.22632830  0.42250834  0.19927126  1
  I  I25  1  0.19617054  0.77371922  0.19922659  1
  I  I26  1  0.89299706  0.75584597  0.53260902  1
  I  I27  1  0.89294599  0.13715967  0.03255944  1
  I  I28  1  0.57756398  0.80381027  0.19921215  1
  I  I29  1  0.57749543  0.77367094  0.69927286  1
  I  I30  1  0.55965960  0.08917115  0.86594187  1
  I  I31  1  0.55961420  0.47049817  0.36590680  1
  I  I32  1  0.86285958  0.75577011  0.03254462  1
  I  I33  1  0.52951956  0.08910164  0.36587692  1
  I  I34  1  0.91089180  0.47047154  0.86586544  1
  I  I35  1  0.91081953  0.44033967  0.36592664  1
