# generated using pymatgen
data_LiI
_symmetry_space_group_name_H-M   'P 1'
_cell_length_a   15.81735698
_cell_length_b   15.81903076
_cell_length_c   7.71184499
_cell_angle_alpha   89.97022309
_cell_angle_beta   90.00596076
_cell_angle_gamma   120.02546401
_symmetry_Int_Tables_number   1
_chemical_formula_structural   LiI
_chemical_formula_sum   'Li18 I18'
_cell_volume   1670.67183345
_cell_formula_units_Z   18
loop_
 _symmetry_equiv_pos_site_id
 _symmetry_equiv_pos_as_xyz
  1  'x, y, z'
loop_
 _atom_site_type_symbol
 _atom_site_label
 _atom_site_symmetry_multiplicity
 _atom_site_fract_x
 _atom_site_fract_y
 _atom_site_fract_z
 _atom_site_occupancy
  Li  Li0  1  0.47605711  0.06355505  0.36659688  1
  Li  Li1  1  0.07934852  0.80967306  -0.03395787  1
  Li  Li2  1  0.52394284  0.93644617  0.63340219  1
  Li  Li3  1  0.58742712  0.52390911  0.36656759  1
  Li  Li4  1  0.73034204  0.92061320  -0.03391743  1
  Li  Li5  1  0.06345191  0.58737182  0.63358871  1
  Li  Li6  1  0.60398191  0.74687629  0.69911752  1
  Li  Li7  1  0.93654801  0.41262670  0.36640956  1
  Li  Li8  1  0.41257278  0.47609192  0.63343252  1
  Li  Li9  1  0.39602077  0.25312565  0.30088369  1
  Li  Li10  1  0.26965838  0.07938725  0.03391771  1
  Li  Li11  1  0.25318257  0.85713769  0.69923361  1
  Li  Li12  1  0.74681591  0.14286341  0.30076583  1
  Li  Li13  1  0.92065081  0.19032410  0.03395682  1
  Li  Li14  1  0.14289962  0.39604241  0.69926349  1
  Li  Li15  1  0.85710082  0.60395454  0.30073347  1
  Li  Li16  1  0.19022901  0.26962823  -0.03400754  1
  Li  Li17  1  0.80977086  0.73037244  0.03401009  1
  I  I18  1  0.53776660  0.83947677  0.90386681  1
  I  I19  1  0.36431381  0.87120026  0.42958230  1
  I  I20  1  0.46223469  0.16052536  0.09612690  1
  I  I21  1  0.30183298  0.46220896  0.90396895  1
  I  I22  1  0.50696995  0.63569125  0.42948556  1
  I  I23  1  0.83967237  0.30182837  0.09597671  1
  I  I24  1  0.82687217  0.03067687  0.23745104  1
  I  I25  1  0.16032423  0.69816955  0.90401798  1
  I  I26  1  0.69816475  0.53779246  0.09602723  1
  I  I27  1  0.17312950  -0.03067563  0.76255214  1
  I  I28  1  0.49302993  0.36430974  0.57052008  1
  I  I29  1  -0.03061078  0.79630859  0.23748194  1
  I  I30  1  0.03060933  0.20369113  0.76251542  1
  I  I31  1  0.63568770  0.12879854  0.57042269  1
  I  I32  1  0.20370299  0.17297197  0.23729611  1
  I  I33  1  0.79629674  0.82702461  0.76270545  1
  I  I34  1  0.12883525  0.49321856  0.42975389  1
  I  I35  1  0.87116677  0.50678360  0.57025195  1
