# generated using pymatgen
data_LiBr
_symmetry_space_group_name_H-M   'P 1'
_cell_length_a   7.79997982
_cell_length_b   7.78314839
_cell_length_c   11.00082531
_cell_angle_alpha   90.00001232
_cell_angle_beta   90.00000187
_cell_angle_gamma   90.00173330
_symmetry_Int_Tables_number   1
_chemical_formula_structural   LiBr
_chemical_formula_sum   'Li16 Br16'
_cell_volume   667.84250755
_cell_formula_units_Z   16
loop_
 _symmetry_equiv_pos_site_id
 _symmetry_equiv_pos_as_xyz
  1  'x, y, z'
loop_
 _atom_site_type_symbol
 _atom_site_label
 _atom_site_symmetry_multiplicity
 _atom_site_fract_x
 _atom_site_fract_y
 _atom_site_fract_z
 _atom_site_occupancy
  Li  Li0  1  0.75014260  0.50045718  0.49669143  1
  Li  Li1  1  0.24985655  0.49954202  0.49669235  1
  Li  Li2  1  0.49974329  0.75041221  0.74670328  1
  Li  Li3  1  0.74985692  0.49954416  0.99669330  1
  Li  Li4  1  -0.00025424  0.75041134  0.24670287  1
  Li  Li5  1  0.00025673  0.74958947  0.74670470  1
  Li  Li6  1  0.25014244  0.50045625  0.99669001  1
  Li  Li7  1  -0.00025668  0.25041150  0.74670323  1
  Li  Li8  1  0.00025578  0.24958869  0.24670476  1
  Li  Li9  1  0.25014405  0.00045778  0.49669056  1
  Li  Li10  1  0.74985675  -0.00045758  0.49669368  1
  Li  Li11  1  0.49974492  0.25041024  0.24670209  1
  Li  Li12  1  0.50025481  0.74958906  0.24670426  1
  Li  Li13  1  0.50025627  0.24958849  0.74670622  1
  Li  Li14  1  0.75014352  0.00045518  0.99669096  1
  Li  Li15  1  0.24985638  -0.00045633  0.99669240  1
  Br  Br16  1  0.74970277  0.00024173  0.24593930  1
  Br  Br17  1  0.25029765  -0.00024083  0.24593926  1
  Br  Br18  1  0.50030107  0.25024493  0.49594070  1
  Br  Br19  1  0.75029737  -0.00024214  0.74593934  1
  Br  Br20  1  0.00030081  0.25024364  -0.00406070  1
  Br  Br21  1  -0.00030109  0.24975480  0.49594063  1
  Br  Br22  1  0.24970287  0.00024173  0.74593954  1
  Br  Br23  1  0.00030112  0.75024447  0.49593980  1
  Br  Br24  1  -0.00030105  0.74975488  -0.00405946  1
  Br  Br25  1  0.24970324  0.50024151  0.24593943  1
  Br  Br26  1  0.75029718  0.49975745  0.24593961  1
  Br  Br27  1  0.50030048  0.75024549  -0.00406005  1
  Br  Br28  1  0.49969918  0.24975581  -0.00406074  1
  Br  Br29  1  0.49969838  0.74975559  0.49594043  1
  Br  Br30  1  0.74970327  0.50024288  0.74593993  1
  Br  Br31  1  0.25029668  0.49975839  0.74594000  1
