# generated using pymatgen
data_LiBr
_symmetry_space_group_name_H-M   'P 1'
_cell_length_a   7.05324898
_cell_length_b   7.05297935
_cell_length_c   8.71872871
_cell_angle_alpha   89.99999114
_cell_angle_beta   90.00003187
_cell_angle_gamma   120.00574473
_symmetry_Int_Tables_number   1
_chemical_formula_structural   LiBr
_chemical_formula_sum   'Li6 Br6'
_cell_volume   375.59558583
_cell_formula_units_Z   6
loop_
 _symmetry_equiv_pos_site_id
 _symmetry_equiv_pos_as_xyz
  1  'x, y, z'
loop_
 _atom_site_type_symbol
 _atom_site_label
 _atom_site_symmetry_multiplicity
 _atom_site_fract_x
 _atom_site_fract_y
 _atom_site_fract_z
 _atom_site_occupancy
  Li  Li0  1  0.21089015  0.60654338  0.72327802  1
  Li  Li1  1  0.60445122  0.21091835  0.88999003  1
  Li  Li2  1  0.39554807  0.78908088  0.38999005  1
  Li  Li3  1  0.60647767  0.39560500  0.55659229  1
  Li  Li4  1  0.39352364  0.60439609  0.05659215  1
  Li  Li5  1  0.78911032  0.39345755  0.22327786  1
  Br  Br6  1  0.00099324  0.50267995  0.47263450  1
  Br  Br7  1  0.49837203  0.00102736  0.63932584  1
  Br  Br8  1  0.50162810  0.99897291  0.13932605  1
  Br  Br9  1  0.50275551  0.50175302  0.30593944  1
  Br  Br10  1  0.49724325  0.49824580  0.80593959  1
  Br  Br11  1  0.99900678  0.49731971  0.97263425  1
