# generated using pymatgen
data_LiBr
_symmetry_space_group_name_H-M   'P 1'
_cell_length_a   3.89728595
_cell_length_b   3.89661876
_cell_length_c   10.99959284
_cell_angle_alpha   90.00022531
_cell_angle_beta   90.00015044
_cell_angle_gamma   90.00009577
_symmetry_Int_Tables_number   1
_chemical_formula_structural   LiBr
_chemical_formula_sum   'Li4 Br4'
_cell_volume   167.04243003
_cell_formula_units_Z   4
loop_
 _symmetry_equiv_pos_site_id
 _symmetry_equiv_pos_as_xyz
  1  'x, y, z'
loop_
 _atom_site_type_symbol
 _atom_site_label
 _atom_site_symmetry_multiplicity
 _atom_site_fract_x
 _atom_site_fract_y
 _atom_site_fract_z
 _atom_site_occupancy
  Li  Li0  1  0.50244767  0.00036057  0.56964859  1
  Li  Li1  1  0.00035579  0.49756790  0.31964734  1
  Li  Li2  1  0.49755266  -0.00036085  0.06964964  1
  Li  Li3  1  -0.00035565  0.50243186  0.81964697  1
  Br  Br4  1  0.50028244  0.00070634  0.31944961  1
  Br  Br5  1  0.00070150  0.49971484  0.06944994  1
  Br  Br6  1  0.49971740  -0.00070677  0.81944994  1
  Br  Br7  1  -0.00070180  0.50028611  0.56945066  1
