# generated using pymatgen
data_LiBr
_symmetry_space_group_name_H-M   'P 1'
_cell_length_a   11.51627367
_cell_length_b   11.51627879
_cell_length_c   7.93525100
_cell_angle_alpha   90.00643168
_cell_angle_beta   89.99358901
_cell_angle_gamma   120.00763339
_symmetry_Int_Tables_number   1
_chemical_formula_structural   LiBr
_chemical_formula_sum   'Li18 Br18'
_cell_volume   911.34335769
_cell_formula_units_Z   18
loop_
 _symmetry_equiv_pos_site_id
 _symmetry_equiv_pos_as_xyz
  1  'x, y, z'
loop_
 _atom_site_type_symbol
 _atom_site_label
 _atom_site_symmetry_multiplicity
 _atom_site_fract_x
 _atom_site_fract_y
 _atom_site_fract_z
 _atom_site_occupancy
  Li  Li0  1  0.86859781  0.74005909  0.38510308  1
  Li  Li1  1  0.86858227  0.12853939  0.88513024  1
  Li  Li2  1  0.59328024  0.79807289  0.55174468  1
  Li  Li3  1  0.20479533  0.40671971  0.55174903  1
  Li  Li4  1  -0.07337153  0.46187813  0.71831337  1
  Li  Li5  1  0.25994366  0.12853738  0.38510645  1
  Li  Li6  1  0.20479154  0.79808538  0.05176951  1
  Li  Li7  1  0.59327776  0.79520434  0.05174905  1
  Li  Li8  1  0.87145735  0.13141627  0.38513001  1
  Li  Li9  1  0.87146523  0.74005842  0.88510761  1
  Li  Li10  1  0.20192801  0.40672028  0.05174611  1
  Li  Li11  1  0.20191528  0.79520823  0.55176885  1
  Li  Li12  1  0.53811846  0.46475922  0.71833280  1
  Li  Li13  1  0.53811990  0.07337346  0.21831308  1
  Li  Li14  1  0.25993873  0.13140208  0.88509815  1
  Li  Li15  1  -0.07337243  0.46474675  0.21830655  1
  Li  Li16  1  0.53525285  0.07337367  0.71830748  1
  Li  Li17  1  0.53524325  0.46188485  0.21833111  1
  Br  Br18  1  0.42545306  0.21405936  0.64542896  1
  Br  Br19  1  0.42545294  0.21139450  0.14542773  1
  Br  Br20  1  0.11926214  0.24119432  0.81209580  1
  Br  Br21  1  0.12193654  0.88072911  0.81212817  1
  Br  Br22  1  0.45259689  0.54473240  0.97870415  1
  Br  Br23  1  0.78594698  0.21138951  0.64546682  1
  Br  Br24  1  0.12193084  0.24119261  0.31209556  1
  Br  Br25  1  0.11927205  0.87806440  0.31212931  1
  Br  Br26  1  0.78860829  0.57454675  0.64543026  1
  Br  Br27  1  0.78860862  0.21405191  0.14546642  1
  Br  Br28  1  0.75880440  0.88073590  0.31209524  1
  Br  Br29  1  0.75880479  0.87806663  0.81209612  1
  Br  Br30  1  0.45526577  -0.09214444  0.97866998  1
  Br  Br31  1  0.45526789  0.54740233  0.47870478  1
  Br  Br32  1  0.78594251  0.57454821  0.14542988  1
  Br  Br33  1  0.45259148  -0.09214473  0.47866884  1
  Br  Br34  1  0.09214592  0.54740875  0.97866990  1
  Br  Br35  1  0.09214515  0.54473295  0.47866948  1
