# generated using pymatgen
data_LiI
_symmetry_space_group_name_H-M   'P 1'
_cell_length_a   7.88773144
_cell_length_b   7.88923880
_cell_length_c   9.91802631
_cell_angle_alpha   90.00055962
_cell_angle_beta   89.99915766
_cell_angle_gamma   120.03845056
_symmetry_Int_Tables_number   1
_chemical_formula_structural   LiI
_chemical_formula_sum   'Li6 I6'
_cell_volume   534.28712044
_cell_formula_units_Z   6
loop_
 _symmetry_equiv_pos_site_id
 _symmetry_equiv_pos_as_xyz
  1  'x, y, z'
loop_
 _atom_site_type_symbol
 _atom_site_label
 _atom_site_symmetry_multiplicity
 _atom_site_fract_x
 _atom_site_fract_y
 _atom_site_fract_z
 _atom_site_occupancy
  Li  Li0  1  0.80847932  0.82700286  0.28128653  1
  Li  Li1  1  0.98149537  0.80857850  -0.05205286  1
  Li  Li2  1  0.01846715  0.19137380  -0.05201840  1
  Li  Li3  1  0.82706686  0.01856716  0.61454025  1
  Li  Li4  1  0.17290689  0.98147042  0.61456593  1
  Li  Li5  1  0.19158341  0.17301016  0.28124990  1
  I  I6  1  0.83149753  0.68176208  0.69876012  1
  I  I7  1  0.14990028  0.83169062  0.36542049  1
  I  I8  1  0.85019545  0.16836570  0.36538379  1
  I  I9  1  0.68167066  0.84987945  0.03214407  1
  I  I10  1  0.31830561  0.15003682  0.03211015  1
  I  I11  1  0.16843148  0.31826242  0.69880050  1
