# generated using pymatgen
data_LiI
_symmetry_space_group_name_H-M   'P 1'
_cell_length_a   8.56431864
_cell_length_b   8.56433572
_cell_length_c   14.08751297
_cell_angle_alpha   90.00028563
_cell_angle_beta   90.00011178
_cell_angle_gamma   89.99602254
_symmetry_Int_Tables_number   1
_chemical_formula_structural   LiI
_chemical_formula_sum   'Li16 I16'
_cell_volume   1033.28667373
_cell_formula_units_Z   16
loop_
 _symmetry_equiv_pos_site_id
 _symmetry_equiv_pos_as_xyz
  1  'x, y, z'
loop_
 _atom_site_type_symbol
 _atom_site_label
 _atom_site_symmetry_multiplicity
 _atom_site_fract_x
 _atom_site_fract_y
 _atom_site_fract_z
 _atom_site_occupancy
  Li  Li0  1  0.19172960  0.81082419  0.75006553  1
  Li  Li1  1  0.68918278  0.69175553  0.74992830  1
  Li  Li2  1  0.19161543  0.31087693  0.49992013  1
  Li  Li3  1  -0.19173220  0.18918345  0.75006542  1
  Li  Li4  1  0.31081633  0.30825001  0.74992794  1
  Li  Li5  1  0.18912065  0.69164191  0.00008315  1
  Li  Li6  1  0.81087862  0.30835477  0.00008263  1
  Li  Li7  1  0.68912205  0.19163880  0.50008548  1
  Li  Li8  1  0.31088151  -0.19164062  0.50008594  1
  Li  Li9  1  0.30827101  0.68918097  0.25006707  1
  Li  Li10  1  0.81082453  -0.19175899  0.24992988  1
  Li  Li11  1  0.69172744  0.31082349  0.25006722  1
  Li  Li12  1  0.18917459  0.19175845  0.24992902  1
  Li  Li13  1  0.69161699  0.81087558  -0.00008092  1
  Li  Li14  1  0.30838125  0.18911912  -0.00008184  1
  Li  Li15  1  -0.19161197  0.68911941  0.49991989  1
  I  I16  1  0.74949479  0.44329237  0.62565709  1
  I  I17  1  0.05671756  0.24949888  0.87434719  1
  I  I18  1  0.74927456  0.94333733  0.62435078  1
  I  I19  1  0.25049514  0.55670907  0.62565661  1
  I  I20  1  0.94328210  0.75050445  0.87434696  1
  I  I21  1  0.55667387  0.24925961  0.87564529  1
  I  I22  1  0.44332449  0.75073709  0.87564435  1
  I  I23  1  0.05667905  0.74926431  0.37564561  1
  I  I24  1  0.94332234  0.25074018  0.37564517  1
  I  I25  1  0.75049190  0.05670666  0.12565904  1
  I  I26  1  0.44328218  0.25049936  0.37434745  1
  I  I27  1  0.24950304  0.94329256  0.12565758  1
  I  I28  1  0.55672033  0.74949249  0.37434887  1
  I  I29  1  0.24927615  0.44333478  0.12435129  1
  I  I30  1  0.75073103  0.55666333  0.12434996  1
  I  I31  1  0.25073285  0.05666452  0.62435195  1
