# generated using pymatgen
data_LiBr
_symmetry_space_group_name_H-M   'P 1'
_cell_length_a   6.95924146
_cell_length_b   7.15669211
_cell_length_c   4.34825797
_cell_angle_alpha   89.99986380
_cell_angle_beta   90.00008529
_cell_angle_gamma   89.99996673
_symmetry_Int_Tables_number   1
_chemical_formula_structural   LiBr
_chemical_formula_sum   'Li4 Br4'
_cell_volume   216.56563345
_cell_formula_units_Z   4
loop_
 _symmetry_equiv_pos_site_id
 _symmetry_equiv_pos_as_xyz
  1  'x, y, z'
loop_
 _atom_site_type_symbol
 _atom_site_label
 _atom_site_symmetry_multiplicity
 _atom_site_fract_x
 _atom_site_fract_y
 _atom_site_fract_z
 _atom_site_occupancy
  Li  Li0  1  0.59982069  0.09989791  0.50374732  1
  Li  Li1  1  0.40017936  0.59989879  -0.00374239  1
  Li  Li2  1  0.90017885  0.90010166  0.00374359  1
  Li  Li3  1  0.09982030  0.40010186  0.49625163  1
  Br  Br4  1  0.02901087  0.57161781  -0.00298697  1
  Br  Br5  1  -0.02901004  0.07161715  0.50298086  1
  Br  Br6  1  0.47098958  0.42838219  0.49702029  1
  Br  Br7  1  0.52901039  0.92838263  0.00298566  1
