# generated using pymatgen
data_NaBr
_symmetry_space_group_name_H-M   'P 1'
_cell_length_a   8.79761860
_cell_length_b   5.04950135
_cell_length_c   6.00122750
_cell_angle_alpha   89.99987723
_cell_angle_beta   89.99989480
_cell_angle_gamma   90.00055833
_symmetry_Int_Tables_number   1
_chemical_formula_structural   NaBr
_chemical_formula_sum   'Na4 Br4'
_cell_volume   266.59605204
_cell_formula_units_Z   4
loop_
 _symmetry_equiv_pos_site_id
 _symmetry_equiv_pos_as_xyz
  1  'x, y, z'
loop_
 _atom_site_type_symbol
 _atom_site_label
 _atom_site_symmetry_multiplicity
 _atom_site_fract_x
 _atom_site_fract_y
 _atom_site_fract_z
 _atom_site_occupancy
  Na  Na0  1  0.33333839  0.48512444  0.49487474  1
  Na  Na1  1  0.83334076  0.01487716  0.49488332  1
  Na  Na2  1  0.66666037  0.51487503  0.99488463  1
  Na  Na3  1  0.16666101  -0.01487661  0.99487386  1
  Br  Br4  1  0.66548689  0.51520651  0.49529535  1
  Br  Br5  1  0.16548577  -0.01521091  0.49530126  1
  Br  Br6  1  0.33451357  0.48479377  -0.00469904  1
  Br  Br7  1  0.83451325  0.01521060  -0.00470488  1
