# generated using pymatgen
data_LiBr
_symmetry_space_group_name_H-M   'P 1'
_cell_length_a   10.27815120
_cell_length_b   10.27815900
_cell_length_c   12.53645089
_cell_angle_alpha   90.00489279
_cell_angle_beta   89.99525895
_cell_angle_gamma   120.00598395
_symmetry_Int_Tables_number   1
_chemical_formula_structural   LiBr
_chemical_formula_sum   'Li18 Br18'
_cell_volume   1146.85728340
_cell_formula_units_Z   18
loop_
 _symmetry_equiv_pos_site_id
 _symmetry_equiv_pos_as_xyz
  1  'x, y, z'
loop_
 _atom_site_type_symbol
 _atom_site_label
 _atom_site_symmetry_multiplicity
 _atom_site_fract_x
 _atom_site_fract_y
 _atom_site_fract_z
 _atom_site_occupancy
  Li  Li0  1  0.08348428  0.66635208  0.38668664  1
  Li  Li1  1  0.08350559  0.41714344  0.88668658  1
  Li  Li2  1  0.66698229  0.58318092  0.55335345  1
  Li  Li3  1  0.91620248  0.33303112  0.55335241  1
  Li  Li4  1  0.00030093  0.75046572  0.72001894  1
  Li  Li5  1  0.33363481  0.41713167  0.38668634  1
  Li  Li6  1  0.91619110  0.58316358  0.05335287  1
  Li  Li7  1  0.66696877  0.08379769  0.05335284  1
  Li  Li8  1  0.58285532  0.91649348  0.38668666  1
  Li  Li9  1  0.58286777  0.66636439  0.88668589  1
  Li  Li10  1  0.41681788  0.33301776  0.05335325  1
  Li  Li11  1  0.41684031  0.08381069  0.55335346  1
  Li  Li12  1  0.24952308  0.24982790  0.72002030  1
  Li  Li13  1  0.24953519  -0.00030192  0.22001959  1
  Li  Li14  1  0.33364895  0.91651595  0.88668621  1
  Li  Li15  1  0.00031570  0.24984931  0.22001898  1
  Li  Li16  1  0.75015124  -0.00031484  0.72001979  1
  Li  Li17  1  0.75017018  0.75047543  0.22001975  1
  Br  Br18  1  0.08396918  0.66692886  0.88661136  1
  Br  Br19  1  0.08399876  0.41705439  0.38661736  1
  Br  Br20  1  0.66640555  0.58269730  0.05327836  1
  Br  Br21  1  0.91630838  0.33362602  0.05328934  1
  Br  Br22  1  -0.00029328  0.75035869  0.21995670  1
  Br  Br23  1  0.33304037  0.41702392  0.88662315  1
  Br  Br24  1  0.91627902  0.58266833  0.55328569  1
  Br  Br25  1  0.66637490  0.08369039  0.55328893  1
  Br  Br26  1  0.58294527  0.91600185  0.88661856  1
  Br  Br27  1  0.58297523  0.66695829  0.38662321  1
  Br  Br28  1  0.41730212  0.33359492  0.55327921  1
  Br  Br29  1  0.41733242  0.08372052  0.05328484  1
  Br  Br30  1  0.24961276  0.24933581  0.21995203  1
  Br  Br31  1  0.24964253  0.00029224  0.71995590  1
  Br  Br32  1  0.33307180  0.91603103  0.38661247  1
  Br  Br33  1  -0.00026112  0.24936433  0.71994573  1
  Br  Br34  1  0.75063581  0.00026184  0.21994575  1
  Br  Br35  1  0.75066439  0.75038691  0.71995095  1
