# generated using pymatgen
data_LiI
_symmetry_space_group_name_H-M   'P 1'
_cell_length_a   13.04536715
_cell_length_b   13.14178872
_cell_length_c   4.31693715
_cell_angle_alpha   72.17252065
_cell_angle_beta   107.86744802
_cell_angle_gamma   122.80941136
_symmetry_Int_Tables_number   1
_chemical_formula_structural   LiI
_chemical_formula_sum   'Li9 I9'
_cell_volume   582.90578877
_cell_formula_units_Z   9
loop_
 _symmetry_equiv_pos_site_id
 _symmetry_equiv_pos_as_xyz
  1  'x, y, z'
loop_
 _atom_site_type_symbol
 _atom_site_label
 _atom_site_symmetry_multiplicity
 _atom_site_fract_x
 _atom_site_fract_y
 _atom_site_fract_z
 _atom_site_occupancy
  Li  Li0  1  0.53418634  0.79745941  0.34607289  1
  Li  Li1  1  0.53555794  0.40400852  0.07178059  1
  Li  Li2  1  0.86707816  0.46354021  0.01169794  1
  Li  Li3  1  0.86904344  0.07062949  0.73910290  1
  Li  Li4  1  0.20041518  0.12999114  0.67728290  1
  Li  Li5  1  -0.06943692  0.79781894  0.40962022  1
  Li  Li6  1  0.20199919  0.73685779  0.40511607  1
  Li  Li7  1  0.59709245  0.13121373  0.74294810  1
  Li  Li8  1  0.26426176  0.46468740  0.07581537  1
  I  I9  1  0.78422252  0.54839435  0.35404503  1
  I  I10  1  0.78548430  0.90478468  0.31759879  1
  I  I11  1  0.11795892  0.21502739  0.02008238  1
  I  I12  1  0.11836486  0.57087023  0.98388409  1
  I  I13  1  0.45077420  0.88143563  0.68844146  1
  I  I14  1  0.43061123  0.54876324  0.65279922  1
  I  I15  1  0.45176636  0.23785741  0.65003033  1
  I  I16  1  0.09705505  0.88169252  -0.01282904  1
  I  I17  1  0.76356505  0.21496790  0.32065845  1
