# generated using pymatgen
data_LiBr
_symmetry_space_group_name_H-M   'P 1'
_cell_length_a   5.07999524
_cell_length_b   9.32458411
_cell_length_c   4.38364477
_cell_angle_alpha   90.00000584
_cell_angle_beta   89.99940628
_cell_angle_gamma   90.00000182
_symmetry_Int_Tables_number   1
_chemical_formula_structural   LiBr
_chemical_formula_sum   'Li4 Br4'
_cell_volume   207.64818064
_cell_formula_units_Z   4
loop_
 _symmetry_equiv_pos_site_id
 _symmetry_equiv_pos_as_xyz
  1  'x, y, z'
loop_
 _atom_site_type_symbol
 _atom_site_label
 _atom_site_symmetry_multiplicity
 _atom_site_fract_x
 _atom_site_fract_y
 _atom_site_fract_z
 _atom_site_occupancy
  Li  Li0  1  0.79593861  0.13662890  0.24981884  1
  Li  Li1  1  0.20406099  0.63662875  0.25018233  1
  Li  Li2  1  0.70406148  0.86337115  0.74982789  1
  Li  Li3  1  0.29593856  0.36337113  0.75017039  1
  Br  Br4  1  0.46036117  0.62617100  0.75033098  1
  Br  Br5  1  0.53963879  0.12617103  0.74966983  1
  Br  Br6  1  0.03963910  0.37382906  0.25032792  1
  Br  Br7  1  0.96036131  0.87382897  0.24967183  1
