# generated using pymatgen
data_LiBr
_symmetry_space_group_name_H-M   'P 1'
_cell_length_a   14.43312173
_cell_length_b   14.43312024
_cell_length_c   14.43311998
_cell_angle_alpha   90.00005369
_cell_angle_beta   89.99998543
_cell_angle_gamma   89.99999966
_symmetry_Int_Tables_number   1
_chemical_formula_structural   LiBr
_chemical_formula_sum   'Li48 Br48'
_cell_volume   3006.63512046
_cell_formula_units_Z   48
loop_
 _symmetry_equiv_pos_site_id
 _symmetry_equiv_pos_as_xyz
  1  'x, y, z'
loop_
 _atom_site_type_symbol
 _atom_site_label
 _atom_site_symmetry_multiplicity
 _atom_site_fract_x
 _atom_site_fract_y
 _atom_site_fract_z
 _atom_site_occupancy
  Li  Li0  1  0.17290345  -0.00163871  0.57121865  1
  Li  Li1  1  0.92878162  0.67290331  -0.00163833  1
  Li  Li2  1  0.07121838  0.82709665  -0.00163901  1
  Li  Li3  1  0.92878171  0.32709669  0.50163831  1
  Li  Li4  1  0.07121840  0.17290332  0.50163903  1
  Li  Li5  1  -0.00163856  0.92878162  0.67290338  1
  Li  Li6  1  0.00163853  0.57121825  0.67290316  1
  Li  Li7  1  0.17290319  0.00163869  0.92878207  1
  Li  Li8  1  0.67290345  0.49836127  0.07121859  1
  Li  Li9  1  0.42878159  0.17290328  0.49836171  1
  Li  Li10  1  0.42878157  0.32709661  -0.00163904  1
  Li  Li11  1  0.50163858  0.57121835  0.82709654  1
  Li  Li12  1  0.42878170  0.67290335  0.50163898  1
  Li  Li13  1  0.57121832  0.17290319  -0.00163826  1
  Li  Li14  1  0.57121836  0.82709676  0.50163824  1
  Li  Li15  1  0.49836145  0.92878177  0.82709681  1
  Li  Li16  1  0.50163854  0.42878174  0.67290321  1
  Li  Li17  1  0.00163856  0.92878173  0.17290321  1
  Li  Li18  1  -0.00163864  0.57121836  0.17290339  1
  Li  Li19  1  0.32709681  0.00163863  0.07121798  1
  Li  Li20  1  0.82709658  0.00163869  0.42878136  1
  Li  Li21  1  -0.00163857  0.07121826  0.82709681  1
  Li  Li22  1  0.00163861  0.42878170  0.82709661  1
  Li  Li23  1  0.67290323  -0.00163865  0.92878201  1
  Li  Li24  1  0.67290345  0.00163865  0.57121865  1
  Li  Li25  1  0.32709680  0.49836130  0.57121796  1
  Li  Li26  1  0.49836144  0.07121837  0.67290334  1
  Li  Li27  1  0.82709684  0.50163862  0.57121799  1
  Li  Li28  1  0.82709654  0.49836137  0.92878131  1
  Li  Li29  1  0.57121832  0.32709668  0.49836104  1
  Li  Li30  1  0.42878170  0.82709674  0.00163828  1
  Li  Li31  1  0.57121842  0.67290334  0.00163900  1
  Li  Li32  1  0.49836144  0.42878163  0.17290344  1
  Li  Li33  1  0.50163859  0.07121823  0.17290319  1
  Li  Li34  1  0.49836149  0.57121828  0.32709681  1
  Li  Li35  1  0.50163854  0.92878170  0.32709666  1
  Li  Li36  1  0.32709653  -0.00163865  0.42878136  1
  Li  Li37  1  0.67290320  0.50163873  0.42878209  1
  Li  Li38  1  0.17290319  0.49836129  0.42878196  1
  Li  Li39  1  0.17290348  0.50163870  0.07121873  1
  Li  Li40  1  0.82709685  -0.00163869  0.07121794  1
  Li  Li41  1  0.32709658  0.50163872  0.92878137  1
  Li  Li42  1  0.07121842  0.32709671  0.00163834  1
  Li  Li43  1  0.92878159  0.17290336  0.00163899  1
  Li  Li44  1  0.07121829  0.67290327  0.49836170  1
  Li  Li45  1  0.92878156  0.82709665  0.49836101  1
  Li  Li46  1  0.00163856  0.07121840  0.32709663  1
  Li  Li47  1  -0.00163856  0.42878173  0.32709684  1
  Br  Br48  1  0.09667818  0.16154091  0.93915137  1
  Br  Br49  1  0.56084903  0.59667818  0.16154102  1
  Br  Br50  1  0.43915111  0.90332179  0.16154074  1
  Br  Br51  1  0.56084905  0.40332179  0.33845910  1
  Br  Br52  1  0.43915106  0.09667816  0.33845908  1
  Br  Br53  1  0.16154098  0.56084870  0.59667829  1
  Br  Br54  1  0.83845920  0.93915110  0.59667797  1
  Br  Br55  1  0.09667817  0.83845908  0.56084874  1
  Br  Br56  1  0.59667823  0.66154088  0.43915129  1
  Br  Br57  1  0.06084901  0.09667814  0.66154112  1
  Br  Br58  1  0.06084883  0.40332187  0.16154085  1
  Br  Br59  1  0.33845910  0.93915123  0.90332164  1
  Br  Br60  1  0.06084890  0.59667820  0.33845929  1
  Br  Br61  1  0.93915096  0.09667818  0.16154096  1
  Br  Br62  1  0.93915097  0.90332186  0.33845888  1
  Br  Br63  1  0.66154070  0.56084885  0.90332198  1
  Br  Br64  1  0.33845922  0.06084880  0.59667808  1
  Br  Br65  1  0.83845926  0.56084886  0.09667812  1
  Br  Br66  1  0.16154096  0.93915110  0.09667835  1
  Br  Br67  1  0.40332182  0.83845911  0.43915091  1
  Br  Br68  1  0.90332179  0.83845912  0.06084868  1
  Br  Br69  1  0.16154076  0.43915125  0.90332193  1
  Br  Br70  1  0.83845908  0.06084896  0.90332172  1
  Br  Br71  1  0.59667815  0.16154089  0.56084903  1
  Br  Br72  1  0.59667814  0.83845905  0.93915103  1
  Br  Br73  1  0.40332187  0.66154090  0.93915124  1
  Br  Br74  1  0.66154094  0.43915112  0.59667832  1
  Br  Br75  1  0.90332191  0.33845920  0.93915097  1
  Br  Br76  1  0.90332186  0.66154086  0.56084895  1
  Br  Br77  1  0.93915111  0.40332178  0.66154077  1
  Br  Br78  1  0.06084905  0.90332180  0.83845908  1
  Br  Br79  1  0.93915118  0.59667815  0.83845915  1
  Br  Br80  1  0.66154090  0.06084875  0.09667837  1
  Br  Br81  1  0.33845925  0.43915113  0.09667802  1
  Br  Br82  1  0.66154075  0.93915122  0.40332189  1
  Br  Br83  1  0.33845899  0.56084885  0.40332170  1
  Br  Br84  1  0.40332186  0.16154092  0.06084899  1
  Br  Br85  1  0.59667814  0.33845914  0.06084873  1
  Br  Br86  1  0.09667813  0.66154085  0.06084908  1
  Br  Br87  1  0.09667818  0.33845916  0.43915101  1
  Br  Br88  1  0.90332181  0.16154083  0.43915123  1
  Br  Br89  1  0.40332177  0.33845914  0.56084870  1
  Br  Br90  1  0.43915095  0.40332184  0.83845896  1
  Br  Br91  1  0.56084894  0.09667816  0.83845922  1
  Br  Br92  1  0.43915093  0.59667821  0.66154088  1
  Br  Br93  1  0.56084886  0.90332192  0.66154089  1
  Br  Br94  1  0.83845904  0.43915121  0.40332167  1
  Br  Br95  1  0.16154081  0.06084883  0.40332196  1
