# generated using pymatgen
data_LiI
_symmetry_space_group_name_H-M   'P 1'
_cell_length_a   7.12224897
_cell_length_b   9.07834898
_cell_length_c   7.30827763
_cell_angle_alpha   90.00002004
_cell_angle_beta   90.00593126
_cell_angle_gamma   89.99838473
_symmetry_Int_Tables_number   1
_chemical_formula_structural   LiI
_chemical_formula_sum   'Li8 I8'
_cell_volume   472.54052469
_cell_formula_units_Z   8
loop_
 _symmetry_equiv_pos_site_id
 _symmetry_equiv_pos_as_xyz
  1  'x, y, z'
loop_
 _atom_site_type_symbol
 _atom_site_label
 _atom_site_symmetry_multiplicity
 _atom_site_fract_x
 _atom_site_fract_y
 _atom_site_fract_z
 _atom_site_occupancy
  Li  Li0  1  -0.00070935  0.24964223  0.43913656  1
  Li  Li1  1  0.49929120  0.25038870  0.43913295  1
  Li  Li2  1  0.00072799  0.24968282  0.93912244  1
  Li  Li3  1  0.00070386  0.75033940  0.43911957  1
  Li  Li4  1  -0.00072597  0.75036742  0.93908864  1
  Li  Li5  1  0.50070942  0.74970011  0.43910738  1
  Li  Li6  1  0.50071660  0.25028392  0.93914933  1
  Li  Li7  1  0.49928931  0.74959571  0.93914436  1
  I  I8  1  0.25019209  0.11867942  0.18917342  1
  I  I9  1  0.75019956  0.38131860  0.18913119  1
  I  I10  1  0.74980832  0.11868326  0.68913591  1
  I  I11  1  0.74979459  0.88132575  0.18912040  1
  I  I12  1  0.25021360  0.88131178  0.68915917  1
  I  I13  1  0.24977716  0.61868363  0.18915597  1
  I  I14  1  0.24981772  0.38132150  0.68917026  1
  I  I15  1  0.75019391  0.61867574  0.68911460  1
