# generated using pymatgen
data_LiI
_symmetry_space_group_name_H-M   'P 1'
_cell_length_a   12.49132354
_cell_length_b   6.76081204
_cell_length_c   6.75706318
_cell_angle_alpha   90.00557610
_cell_angle_beta   89.78847821
_cell_angle_gamma   90.16766682
_symmetry_Int_Tables_number   1
_chemical_formula_structural   LiI
_chemical_formula_sum   'Li8 I8'
_cell_volume   570.63772373
_cell_formula_units_Z   8
loop_
 _symmetry_equiv_pos_site_id
 _symmetry_equiv_pos_as_xyz
  1  'x, y, z'
loop_
 _atom_site_type_symbol
 _atom_site_label
 _atom_site_symmetry_multiplicity
 _atom_site_fract_x
 _atom_site_fract_y
 _atom_site_fract_z
 _atom_site_occupancy
  Li  Li0  1  0.00009365  0.24978656  0.49991121  1
  Li  Li1  1  0.49993033  0.24998602  -0.00006055  1
  Li  Li2  1  -0.00008137  0.24983965  -0.00036168  1
  Li  Li3  1  0.49992001  0.74975693  0.50034930  1
  Li  Li4  1  0.50008309  0.74978652  0.00010037  1
  Li  Li5  1  0.00006899  0.75038438  0.00034660  1
  Li  Li6  1  0.50009281  0.25002081  0.49965317  1
  Li  Li7  1  -0.00010496  0.75043797  0.50005895  1
  I  I8  1  0.11462460  0.00073122  0.24885145  1
  I  I9  1  0.61466536  0.50044006  0.74888013  1
  I  I10  1  -0.11445397  0.49933758  0.25112941  1
  I  I11  1  0.61441606  0.00030116  0.24888109  1
  I  I12  1  0.38533777  0.49933972  0.25113917  1
  I  I13  1  0.11445339  0.50088271  0.74885614  1
  I  I14  1  0.38555285  -0.00051878  0.75114255  1
  I  I15  1  -0.11459861  -0.00051251  0.75112268  1
