# generated using pymatgen
data_LiI
_symmetry_space_group_name_H-M   'P 1'
_cell_length_a   12.58752399
_cell_length_b   12.58764257
_cell_length_c   8.67219273
_cell_angle_alpha   90.00194782
_cell_angle_beta   89.99812680
_cell_angle_gamma   120.00334214
_symmetry_Int_Tables_number   1
_chemical_formula_structural   LiI
_chemical_formula_sum   'Li18 I18'
_cell_volume   1189.95253594
_cell_formula_units_Z   18
loop_
 _symmetry_equiv_pos_site_id
 _symmetry_equiv_pos_as_xyz
  1  'x, y, z'
loop_
 _atom_site_type_symbol
 _atom_site_label
 _atom_site_symmetry_multiplicity
 _atom_site_fract_x
 _atom_site_fract_y
 _atom_site_fract_z
 _atom_site_occupancy
  Li  Li0  1  0.20038691  0.40540443  0.68545631  1
  Li  Li1  1  0.20038373  0.79500445  0.18547547  1
  Li  Li2  1  0.92797641  0.46623839  0.85211433  1
  Li  Li3  1  0.53826835  0.07202176  0.85211258  1
  Li  Li4  1  0.26137023  0.12851489  0.01889456  1
  Li  Li5  1  0.59460715  0.79499264  0.68546519  1
  Li  Li6  1  0.53826170  0.46623753  0.35212968  1
  Li  Li7  1  0.92798016  0.46173179  0.35211441  1
  Li  Li8  1  0.20499529  0.79961639  0.68547583  1
  Li  Li9  1  0.20500804  0.40539457  0.18546379  1
  Li  Li10  1  0.53376195  0.07202519  0.35211259  1
  Li  Li11  1  0.53376068  0.46173756  0.85212977  1
  Li  Li12  1  0.87147935  0.13285643  0.01890604  1
  Li  Li13  1  0.87148548  0.73863071  0.51889385  1
  Li  Li14  1  0.59459673  0.79961368  0.18545805  1
  Li  Li15  1  0.26136467  0.13285287  0.51889221  1
  Li  Li16  1  0.86714736  0.73863597  0.01889194  1
  Li  Li17  1  0.86714236  0.12851888  0.51890637  1
  I  I18  1  0.75984553  0.87803985  0.44574181  1
  I  I19  1  0.75985572  0.88181008  0.94574712  1
  I  I20  1  0.45540063  0.90684081  0.61238677  1
  I  I21  1  0.45144374  0.54459022  0.61240967  1
  I  I22  1  0.78871887  0.21523652  0.77911888  1
  I  I23  1  0.12195658  0.88181386  0.44576015  1
  I  I24  1  0.45143639  0.90684100  0.11238468  1
  I  I25  1  0.45541083  0.54855713  0.11241002  1
  I  I26  1  0.11818959  0.24014334  0.44574645  1
  I  I27  1  0.11818712  0.87804484  0.94576052  1
  I  I28  1  0.09315813  0.54459945  0.11238763  1
  I  I29  1  0.09315716  0.54856332  0.61238565  1
  I  I30  1  0.78476603  0.57347044  0.77909922  1
  I  I31  1  0.78476427  0.21128229  0.27911950  1
  I  I32  1  0.12195996  0.24015297  0.94574209  1
  I  I33  1  0.78872119  0.57347416  0.27910189  1
  I  I34  1  0.42652381  0.21127833  0.77910228  1
  I  I35  1  0.42652789  0.21523327  0.27909977  1
