# generated using pymatgen
data_LiBr
_symmetry_space_group_name_H-M   'P 1'
_cell_length_a   11.53740129
_cell_length_b   11.53740405
_cell_length_c   7.92690867
_cell_angle_alpha   90.00167376
_cell_angle_beta   89.99843588
_cell_angle_gamma   120.00675865
_symmetry_Int_Tables_number   1
_chemical_formula_structural   LiBr
_chemical_formula_sum   'Li18 Br18'
_cell_volume   913.73656567
_cell_formula_units_Z   18
loop_
 _symmetry_equiv_pos_site_id
 _symmetry_equiv_pos_as_xyz
  1  'x, y, z'
loop_
 _atom_site_type_symbol
 _atom_site_label
 _atom_site_symmetry_multiplicity
 _atom_site_fract_x
 _atom_site_fract_y
 _atom_site_fract_z
 _atom_site_occupancy
  Li  Li0  1  0.74009196  0.86941933  0.03585870  1
  Li  Li1  1  0.74008892  0.87067842  0.53587075  1
  Li  Li2  1  0.46389552  0.92652467  0.20240580  1
  Li  Li3  1  0.46264476  0.53611217  0.20241560  1
  Li  Li4  1  0.79722480  0.20394786  0.36904330  1
  Li  Li5  1  0.13057705  0.87066253  0.03587023  1
  Li  Li6  1  0.46263559  0.92652784  0.70242551  1
  Li  Li7  1  0.46388697  0.53735520  0.70241450  1
  Li  Li8  1  0.12932152  0.25991318  0.03587176  1
  Li  Li9  1  0.12933866  0.86942438  0.53586964  1
  Li  Li10  1  0.07347286  0.53610335  0.70240682  1
  Li  Li11  1  0.07347258  0.53736441  0.20242711  1
  Li  Li12  1  0.79604544  0.59328704  0.36904437  1
  Li  Li13  1  0.79605059  0.20277502  0.86904275  1
  Li  Li14  1  0.13057991  0.25990832  0.53585827  1
  Li  Li15  1  0.79724784  0.59329147  0.86902497  1
  Li  Li16  1  0.40670946  0.20275164  0.36902589  1
  Li  Li17  1  0.40671309  0.20395604  0.86904510  1
  Br  Br18  1  0.57434598  0.78766483  0.77517199  1
  Br  Br19  1  0.57433807  0.78666060  0.27519680  1
  Br  Br20  1  0.54566320  0.09229130  -0.05825963  1
  Br  Br21  1  0.54659492  0.45430452  -0.05828663  1
  Br  Br22  1  0.87888625  0.12001515  0.10832036  1
  Br  Br23  1  0.21236374  0.78671065  0.77515877  1
  Br  Br24  1  0.54663740  0.09229796  0.44176582  1
  Br  Br25  1  0.54569818  0.45340556  0.44171519  1
  Br  Br26  1  0.21333919  0.42566304  0.77519834  1
  Br  Br27  1  0.21328895  0.78763697  0.27515637  1
  Br  Br28  1  0.90770754  0.45433530  0.44174164  1
  Br  Br29  1  0.90770073  0.45336106  -0.05823319  1
  Br  Br30  1  0.88003439  0.75889806  0.10836969  1
  Br  Br31  1  0.87998543  0.12111376  0.60832010  1
  Br  Br32  1  0.21233552  0.42565405  0.27517092  1
  Br  Br33  1  0.87886470  0.75888345  0.60832824  1
  Br  Br34  1  0.24111536  0.12113545  0.10832979  1
  Br  Br35  1  0.24110289  0.11996542  0.60837054  1
