# generated using pymatgen
data_LiI
_symmetry_space_group_name_H-M   'P 1'
_cell_length_a   14.94264241
_cell_length_b   8.02762618
_cell_length_c   4.69308287
_cell_angle_alpha   89.99992009
_cell_angle_beta   90.00010077
_cell_angle_gamma   89.99959236
_symmetry_Int_Tables_number   1
_chemical_formula_structural   LiI
_chemical_formula_sum   'Li8 I8'
_cell_volume   562.95381562
_cell_formula_units_Z   8
loop_
 _symmetry_equiv_pos_site_id
 _symmetry_equiv_pos_as_xyz
  1  'x, y, z'
loop_
 _atom_site_type_symbol
 _atom_site_label
 _atom_site_symmetry_multiplicity
 _atom_site_fract_x
 _atom_site_fract_y
 _atom_site_fract_z
 _atom_site_occupancy
  Li  Li0  1  0.57249116  0.16709248  0.51000134  1
  Li  Li1  1  0.07249196  0.83290793  0.00999959  1
  Li  Li2  1  -0.07249189  0.66708558  0.51000405  1
  Li  Li3  1  0.42750883  0.83291528  0.51000309  1
  Li  Li4  1  0.07249395  0.33290892  0.50999883  1
  Li  Li5  1  -0.07249617  0.16708526  0.01000406  1
  Li  Li6  1  0.42750509  0.33291588  0.01000341  1
  Li  Li7  1  0.57249649  0.66709093  0.01000152  1
  I  I8  1  0.11650572  0.66844540  0.50935039  1
  I  I9  1  0.61650328  0.33155105  0.00935160  1
  I  I10  1  0.38349545  0.16845231  0.50935265  1
  I  I11  1  0.88349715  0.33155189  0.50935230  1
  I  I12  1  0.61650464  0.83155608  0.50935068  1
  I  I13  1  0.38349855  0.66845479  0.00935211  1
  I  I14  1  0.88349436  0.83154528  0.00935372  1
  I  I15  1  0.11650144  0.16844096  0.00934894  1
