# generated using pymatgen
data_NaI
_symmetry_space_group_name_H-M   'P 1'
_cell_length_a   8.33389326
_cell_length_b   9.10294334
_cell_length_c   8.63587139
_cell_angle_alpha   90.00040669
_cell_angle_beta   90.01268203
_cell_angle_gamma   89.99999977
_symmetry_Int_Tables_number   1
_chemical_formula_structural   NaI
_chemical_formula_sum   'Na8 I8'
_cell_volume   655.14273386
_cell_formula_units_Z   8
loop_
 _symmetry_equiv_pos_site_id
 _symmetry_equiv_pos_as_xyz
  1  'x, y, z'
loop_
 _atom_site_type_symbol
 _atom_site_label
 _atom_site_symmetry_multiplicity
 _atom_site_fract_x
 _atom_site_fract_y
 _atom_site_fract_z
 _atom_site_occupancy
  Na  Na0  1  0.26568438  0.12342673  0.63196034  1
  Na  Na1  1  0.76568421  0.87657348  0.13196146  1
  Na  Na2  1  0.23431581  0.62342591  0.63195706  1
  Na  Na3  1  0.73431577  0.87657429  0.63195817  1
  Na  Na4  1  0.76568448  0.37657344  0.63196146  1
  Na  Na5  1  0.23431581  0.12342587  0.13195705  1
  Na  Na6  1  0.73431578  0.37657433  0.13195816  1
  Na  Na7  1  0.26568412  0.62342670  0.13196034  1
  I  I8  1  0.25957459  0.87344509  0.88130986  1
  I  I9  1  0.75957479  0.12655471  0.38131124  1
  I  I10  1  0.24042530  0.37344415  0.88130694  1
  I  I11  1  0.74042502  0.12655566  0.88130832  1
  I  I12  1  0.75957492  0.62655472  0.88131124  1
  I  I13  1  0.24042544  0.87344417  0.38130695  1
  I  I14  1  0.74042515  0.62655564  0.38130834  1
  I  I15  1  0.25957445  0.37344510  0.38130986  1
