# generated using pymatgen
data_LiBr
_symmetry_space_group_name_H-M   'P 1'
_cell_length_a   3.88855562
_cell_length_b   3.88858304
_cell_length_c   11.02641591
_cell_angle_alpha   90.03294898
_cell_angle_beta   90.04541925
_cell_angle_gamma   90.04217485
_symmetry_Int_Tables_number   1
_chemical_formula_structural   LiBr
_chemical_formula_sum   'Li4 Br4'
_cell_volume   166.72999494
_cell_formula_units_Z   4
loop_
 _symmetry_equiv_pos_site_id
 _symmetry_equiv_pos_as_xyz
  1  'x, y, z'
loop_
 _atom_site_type_symbol
 _atom_site_label
 _atom_site_symmetry_multiplicity
 _atom_site_fract_x
 _atom_site_fract_y
 _atom_site_fract_z
 _atom_site_occupancy
  Li  Li0  1  -0.00284511  0.50097538  0.36732215  1
  Li  Li1  1  0.50093094  0.00285459  0.11735572  1
  Li  Li2  1  0.00286790  0.49906268  0.86744133  1
  Li  Li3  1  0.49907718  -0.00285432  0.61740997  1
  Br  Br4  1  0.49889787  0.00054436  0.36763638  1
  Br  Br5  1  0.00025636  0.50112265  0.11753569  1
  Br  Br6  1  0.50108138  -0.00063134  0.86740827  1
  Br  Br7  1  -0.00026652  0.49892600  0.61751577  1
