# generated using pymatgen
data_LiBr
_symmetry_space_group_name_H-M   'P 1'
_cell_length_a   10.52332582
_cell_length_b   10.52332684
_cell_length_c   11.76449472
_cell_angle_alpha   90.00474417
_cell_angle_beta   89.99524835
_cell_angle_gamma   120.00640882
_symmetry_Int_Tables_number   1
_chemical_formula_structural   LiBr
_chemical_formula_sum   'Li18 Br18'
_cell_volume   1128.18919198
_cell_formula_units_Z   18
loop_
 _symmetry_equiv_pos_site_id
 _symmetry_equiv_pos_as_xyz
  1  'x, y, z'
loop_
 _atom_site_type_symbol
 _atom_site_label
 _atom_site_symmetry_multiplicity
 _atom_site_fract_x
 _atom_site_fract_y
 _atom_site_fract_z
 _atom_site_occupancy
  Li  Li0  1  0.75256578  0.75085687  0.66735381  1
  Li  Li1  1  0.75255905  0.00170458  0.16735486  1
  Li  Li2  1  0.58242015  0.91405296  0.83422167  1
  Li  Li3  1  0.33162823  0.41757363  0.83422098  1
  Li  Li4  1  0.91587898  0.33507074  0.00096727  1
  Li  Li5  1  0.24915127  0.00171345  0.66735286  1
  Li  Li6  1  0.33163607  0.91405602  0.33422151  1
  Li  Li7  1  0.58242625  0.66837154  0.33422084  1
  Li  Li8  1  0.99829540  0.24744106  0.66735474  1
  Li  Li9  1  0.99828680  0.75084871  0.16735306  1
  Li  Li10  1  0.08594679  0.41757950  0.33422140  1
  Li  Li11  1  0.08594362  0.66836412  0.83422164  1
  Li  Li12  1  0.66493780  0.58080691  0.00096547  1
  Li  Li13  1  0.66492907  0.08412116  0.50096768  1
  Li  Li14  1  0.24914307  0.24743379  0.16735401  1
  Li  Li15  1  0.91586682  0.58080091  0.50096207  1
  Li  Li16  1  0.41919925  0.08413344  0.00096212  1
  Li  Li17  1  0.41919329  0.33506246  0.50096547  1
  Br  Br18  1  0.66830955  0.57320094  0.49991331  1
  Br  Br19  1  0.66828535  0.09509946  -0.00006175  1
  Br  Br20  1  0.76015353  0.99833907  0.66662945  1
  Br  Br21  1  0.23816771  0.23981937  0.66664041  1
  Br  Br22  1  0.09339836  0.42838183  0.83322421  1
  Br  Br23  1  0.42682839  0.09512717  0.49992614  1
  Br  Br24  1  0.23819789  0.99836284  0.16665112  1
  Br  Br25  1  0.76018090  0.76183241  0.16664041  1
  Br  Br26  1  0.90490039  0.33171460  0.49993806  1
  Br  Br27  1  0.90487292  0.57317143  -0.00007358  1
  Br  Br28  1  0.00166106  0.23984623  0.16662919  1
  Br  Br29  1  0.00163699  0.76180233  0.66665104  1
  Br  Br30  1  0.57164871  0.66503046  0.83323463  1
  Br  Br31  1  0.57161862  0.90660171  0.33322457  1
  Br  Br32  1  0.42679907  0.33169063  -0.00008650  1
  Br  Br33  1  0.09336798  0.66500435  0.33320859  1
  Br  Br34  1  0.33499545  0.90663220  0.83320870  1
  Br  Br35  1  0.33496943  0.42835110  0.33323459  1
