# generated using pymatgen
data_NaBr
_symmetry_space_group_name_H-M   'P 1'
_cell_length_a   15.13801366
_cell_length_b   14.91910253
_cell_length_c   4.27440541
_cell_angle_alpha   90.00110866
_cell_angle_beta   89.99035645
_cell_angle_gamma   89.99998838
_symmetry_Int_Tables_number   1
_chemical_formula_structural   NaBr
_chemical_formula_sum   'Na16 Br16'
_cell_volume   965.35554632
_cell_formula_units_Z   16
loop_
 _symmetry_equiv_pos_site_id
 _symmetry_equiv_pos_as_xyz
  1  'x, y, z'
loop_
 _atom_site_type_symbol
 _atom_site_label
 _atom_site_symmetry_multiplicity
 _atom_site_fract_x
 _atom_site_fract_y
 _atom_site_fract_z
 _atom_site_occupancy
  Na  Na0  1  0.61636087  0.77148841  0.74224220  1
  Na  Na1  1  0.38364917  0.22850459  0.74242194  1
  Na  Na2  1  0.63364998  0.02149457  -0.00758044  1
  Na  Na3  1  0.88364904  0.22850459  0.24241961  1
  Na  Na4  1  0.13364992  0.02149474  0.49241682  1
  Na  Na5  1  0.86636142  0.47851114  -0.00775166  1
  Na  Na6  1  0.11636078  0.77148808  0.24223855  1
  Na  Na7  1  0.13364998  0.52149468  -0.00758227  1
  Na  Na8  1  0.86636150  -0.02148880  0.49224866  1
  Na  Na9  1  0.11636092  0.27148823  0.74223831  1
  Na  Na10  1  0.88364894  0.72850456  0.74241932  1
  Na  Na11  1  0.63364989  0.52149467  0.49241880  1
  Na  Na12  1  0.36636163  0.47851113  0.49224474  1
  Na  Na13  1  0.36636162  -0.02148889  -0.00775569  1
  Na  Na14  1  0.61636085  0.27148830  0.24224252  1
  Na  Na15  1  0.38364917  0.72850460  0.24242272  1
  Br  Br16  1  0.27554161  0.38036033  0.97557660  1
  Br  Br17  1  0.72444678  0.61965456  0.97569074  1
  Br  Br18  1  0.97444788  0.63034650  0.22567082  1
  Br  Br19  1  0.22444677  0.61965459  0.47568689  1
  Br  Br20  1  0.47444762  0.63034594  0.72567556  1
  Br  Br21  1  0.52554220  0.86964008  0.22559147  1
  Br  Br22  1  0.77554173  0.38036049  0.47557919  1
  Br  Br23  1  0.47444777  0.13034612  0.22567503  1
  Br  Br24  1  0.52554239  0.36964023  0.72559120  1
  Br  Br25  1  0.77554167  0.88036041  0.97557988  1
  Br  Br26  1  0.22444685  0.11965451  0.97568710  1
  Br  Br27  1  0.97444786  0.13034634  0.72567150  1
  Br  Br28  1  0.02554242  0.86964021  0.72558854  1
  Br  Br29  1  0.02554234  0.36964007  0.22558874  1
  Br  Br30  1  0.27554163  0.88036036  0.47557600  1
  Br  Br31  1  0.72444678  0.11965469  0.47569077  1
