# generated using pymatgen
data_LiBr
_symmetry_space_group_name_H-M   'P 1'
_cell_length_a   12.57832952
_cell_length_b   12.57837560
_cell_length_c   12.57836982
_cell_angle_alpha   90.00023637
_cell_angle_beta   90.00011399
_cell_angle_gamma   90.00015688
_symmetry_Int_Tables_number   1
_chemical_formula_structural   LiBr
_chemical_formula_sum   'Li24 Br24'
_cell_volume   1990.08618980
_cell_formula_units_Z   24
loop_
 _symmetry_equiv_pos_site_id
 _symmetry_equiv_pos_as_xyz
  1  'x, y, z'
loop_
 _atom_site_type_symbol
 _atom_site_label
 _atom_site_symmetry_multiplicity
 _atom_site_fract_x
 _atom_site_fract_y
 _atom_site_fract_z
 _atom_site_occupancy
  Li  Li0  1  0.87936161  0.00008080  0.74391387  1
  Li  Li1  1  0.50008282  0.62063688  0.75608823  1
  Li  Li2  1  0.12063778  0.00008436  0.25608852  1
  Li  Li3  1  0.75608775  0.49991834  0.37936214  1
  Li  Li4  1  -0.00008232  0.25608742  0.87936250  1
  Li  Li5  1  0.24391149  0.50008030  0.37936295  1
  Li  Li6  1  0.00008235  0.25608816  0.12063736  1
  Li  Li7  1  -0.00008031  0.74391299  0.12063632  1
  Li  Li8  1  0.75608870  0.50008503  0.62063602  1
  Li  Li9  1  0.00008216  0.74391180  0.87936253  1
  Li  Li10  1  0.24391262  0.49991820  0.62063703  1
  Li  Li11  1  0.12063680  -0.00008195  0.74391421  1
  Li  Li12  1  0.49991776  0.37936309  0.75608765  1
  Li  Li13  1  0.50007983  0.37936250  0.24391183  1
  Li  Li14  1  0.87936246  -0.00008562  0.25608905  1
  Li  Li15  1  0.49991728  0.62063811  0.24391146  1
  Li  Li16  1  0.74391341  0.12063663  -0.00008137  1
  Li  Li17  1  0.74391333  0.87936139  0.00008143  1
  Li  Li18  1  0.37936074  0.75608723  0.49991752  1
  Li  Li19  1  0.25609049  0.12063726  0.00008473  1
  Li  Li20  1  0.62063933  0.24391265  0.49991741  1
  Li  Li21  1  0.25609079  0.87936334  -0.00008523  1
  Li  Li22  1  0.37936231  0.24391068  0.50008263  1
  Li  Li23  1  0.62063460  0.75608891  0.50008323  1
  Br  Br24  1  0.00002596  0.15235337  0.28324401  1
  Br  Br25  1  0.65235223  0.49997249  0.21675402  1
  Br  Br26  1  -0.00002906  0.15235325  0.71675484  1
  Br  Br27  1  0.21675437  0.34764627  0.50002745  1
  Br  Br28  1  0.84764758  0.71675307  0.00002661  1
  Br  Br29  1  0.78324371  0.65235585  0.50002587  1
  Br  Br30  1  0.15235556  0.71675513  -0.00002858  1
  Br  Br31  1  0.84764635  0.28324586  -0.00002710  1
  Br  Br32  1  0.21675250  0.65235227  0.49997181  1
  Br  Br33  1  0.15235416  0.28324406  0.00002715  1
  Br  Br34  1  0.78324766  0.34764874  0.49997246  1
  Br  Br35  1  -0.00002461  0.84764536  0.28324583  1
  Br  Br36  1  0.34764456  0.50002712  0.21675445  1
  Br  Br37  1  0.65235452  0.50002827  0.78324435  1
  Br  Br38  1  0.00002609  0.84764578  0.71675600  1
  Br  Br39  1  0.34764628  0.49997307  0.78324683  1
  Br  Br40  1  0.28324776  -0.00002456  0.84764669  1
  Br  Br41  1  0.28324703  0.00002686  0.15235336  1
  Br  Br42  1  0.50002744  0.21675529  0.34764667  1
  Br  Br43  1  0.71675429  -0.00002923  0.15235303  1
  Br  Br44  1  0.49997055  0.78324616  0.34764649  1
  Br  Br45  1  0.71675303  0.00002657  0.84764793  1
  Br  Br46  1  0.50002441  0.78324528  0.65235484  1
  Br  Br47  1  0.49997384  0.21675515  0.65235297  1
