# generated using pymatgen
data_LiBr
_symmetry_space_group_name_H-M   'P 1'
_cell_length_a   11.00025564
_cell_length_b   3.89214188
_cell_length_c   3.89292430
_cell_angle_alpha   89.99998142
_cell_angle_beta   90.00000069
_cell_angle_gamma   90.00000006
_symmetry_Int_Tables_number   1
_chemical_formula_structural   LiBr
_chemical_formula_sum   'Li4 Br4'
_cell_volume   166.67382431
_cell_formula_units_Z   4
loop_
 _symmetry_equiv_pos_site_id
 _symmetry_equiv_pos_as_xyz
  1  'x, y, z'
loop_
 _atom_site_type_symbol
 _atom_site_label
 _atom_site_symmetry_multiplicity
 _atom_site_fract_x
 _atom_site_fract_y
 _atom_site_fract_z
 _atom_site_occupancy
  Li  Li0  1  0.62563275  0.25051898  0.49750008  1
  Li  Li1  1  0.37436723  0.75051854  0.00249973  1
  Li  Li2  1  0.87436723  0.74948146  -0.00249665  1
  Li  Li3  1  0.12563275  0.24948100  0.50249685  1
  Br  Br4  1  0.37505245  0.25095829  0.49968335  1
  Br  Br5  1  0.62494756  0.75095855  0.00031672  1
  Br  Br6  1  0.12494757  0.74904145  -0.00031713  1
  Br  Br7  1  0.87505245  0.24904174  0.50031707  1
