# generated using pymatgen
data_LiI
_symmetry_space_group_name_H-M   'P 1'
_cell_length_a   12.18725966
_cell_length_b   12.19138824
_cell_length_c   10.72172135
_cell_angle_alpha   90.01790010
_cell_angle_beta   89.98784784
_cell_angle_gamma   120.02473147
_symmetry_Int_Tables_number   1
_chemical_formula_structural   LiI
_chemical_formula_sum   'Li18 I18'
_cell_volume   1379.25976385
_cell_formula_units_Z   18
loop_
 _symmetry_equiv_pos_site_id
 _symmetry_equiv_pos_as_xyz
  1  'x, y, z'
loop_
 _atom_site_type_symbol
 _atom_site_label
 _atom_site_symmetry_multiplicity
 _atom_site_fract_x
 _atom_site_fract_y
 _atom_site_fract_z
 _atom_site_occupancy
  Li  Li0  1  -0.00116173  0.64535545  0.49997586  1
  Li  Li1  1  0.02023425  0.33220961  0.83339947  1
  Li  Li2  1  0.00114783  0.35463357  0.50002409  1
  Li  Li3  1  0.64643552  0.00113538  0.49993266  1
  Li  Li4  1  0.31194407  -0.02013462  0.83336784  1
  Li  Li5  1  0.64527512  0.64653661  0.50003334  1
  Li  Li6  1  0.02138979  0.68679606  0.83330029  1
  Li  Li7  1  0.35471993  0.35346797  0.49996742  1
  Li  Li8  1  0.35356326  -0.00112881  0.50006875  1
  Li  Li9  1  0.97861556  0.31319805  0.16670012  1
  Li  Li10  1  0.68805273  0.02013007  0.16663130  1
  Li  Li11  1  0.31309922  0.33445841  0.83326573  1
  Li  Li12  1  0.68689981  0.66553940  0.16673124  1
  Li  Li13  1  -0.02023194  0.66779264  0.16660211  1
  Li  Li14  1  0.66551562  0.97869793  0.83330786  1
  Li  Li15  1  0.33449085  0.02130794  0.16669284  1
  Li  Li16  1  0.66783109  0.68797894  0.83335708  1
  Li  Li17  1  0.33218298  0.31202809  0.16664177  1
  I  I18  1  0.53494355  0.07117595  0.68717220  1
  I  I19  1  0.13034223  0.86840140  0.64622874  1
  I  I20  1  0.46505008  0.92882229  0.31282938  1
  I  I21  1  0.53631947  0.46493329  0.68710574  1
  I  I22  1  0.73784150  0.86967284  0.64612339  1
  I  I23  1  0.07117264  0.53633425  0.31279435  1
  I  I24  1  0.59549479  0.79699767  0.02053747  1
  I  I25  1  0.92882049  0.46366181  0.68720654  1
  I  I26  1  0.46367812  0.53506866  0.31289227  1
  I  I27  1  0.40451140  0.20300340  -0.02054015  1
  I  I28  1  0.26216143  0.13033059  0.35387547  1
  I  I29  1  0.20298965  0.79826418  0.02044157  1
  I  I30  1  0.79701437  0.20173578  -0.02043540  1
  I  I31  1  0.86965309  0.13159413  0.35376807  1
  I  I32  1  0.20161589  0.40450955  0.02050493  1
  I  I33  1  0.79838964  0.59549267  -0.02050626  1
  I  I34  1  0.13171940  0.26215823  0.64616253  1
  I  I35  1  0.86827830  0.73784065  0.35383942  1
