# generated using pymatgen
data_LiI
_symmetry_space_group_name_H-M   'P 1'
_cell_length_a   7.20848569
_cell_length_b   4.27242507
_cell_length_c   6.99252317
_cell_angle_alpha   90.00005461
_cell_angle_beta   90.00008756
_cell_angle_gamma   89.99981754
_symmetry_Int_Tables_number   1
_chemical_formula_structural   LiI
_chemical_formula_sum   'Li4 I4'
_cell_volume   215.35373554
_cell_formula_units_Z   4
loop_
 _symmetry_equiv_pos_site_id
 _symmetry_equiv_pos_as_xyz
  1  'x, y, z'
loop_
 _atom_site_type_symbol
 _atom_site_label
 _atom_site_symmetry_multiplicity
 _atom_site_fract_x
 _atom_site_fract_y
 _atom_site_fract_z
 _atom_site_occupancy
  Li  Li0  1  0.74872208  0.25231741  0.84552869  1
  Li  Li1  1  0.24872255  0.74769624  0.84552949  1
  Li  Li2  1  0.25128138  0.74768484  0.34552923  1
  Li  Li3  1  0.75128039  0.25230066  0.34552359  1
  I  I4  1  0.91823956  0.75029255  0.09564991  1
  I  I5  1  0.41823967  0.24970548  0.09564850  1
  I  I6  1  0.08175685  0.24970363  0.59564868  1
  I  I7  1  0.58175751  0.75029918  0.59564723  1
