# generated using pymatgen
data_NaI
_symmetry_space_group_name_H-M   'P 1'
_cell_length_a   8.01147203
_cell_length_b   4.61815259
_cell_length_c   9.21077054
_cell_angle_alpha   90.00033522
_cell_angle_beta   125.28770797
_cell_angle_gamma   89.99835787
_symmetry_Int_Tables_number   1
_chemical_formula_structural   NaI
_chemical_formula_sum   'Na4 I4'
_cell_volume   278.16718684
_cell_formula_units_Z   4
loop_
 _symmetry_equiv_pos_site_id
 _symmetry_equiv_pos_as_xyz
  1  'x, y, z'
loop_
 _atom_site_type_symbol
 _atom_site_label
 _atom_site_symmetry_multiplicity
 _atom_site_fract_x
 _atom_site_fract_y
 _atom_site_fract_z
 _atom_site_occupancy
  Na  Na0  1  0.92326791  0.50131948  0.76968376  1
  Na  Na1  1  0.42326933  0.00131908  0.76968300  1
  Na  Na2  1  0.92326947  0.49867923  0.26968405  1
  Na  Na3  1  0.42326800  -0.00132082  0.26968416  1
  I  I4  1  0.42480298  0.50104926  0.02042509  1
  I  I5  1  0.92480392  0.00105029  0.02042600  1
  I  I6  1  0.42480431  0.49895159  0.52042618  1
  I  I7  1  0.92480334  -0.00104811  0.52042557  1
