# generated using pymatgen
data_NaI
_symmetry_space_group_name_H-M   'P 1'
_cell_length_a   7.83778278
_cell_length_b   4.60127881
_cell_length_c   7.74201283
_cell_angle_alpha   90.00101370
_cell_angle_beta   89.97617066
_cell_angle_gamma   89.99483488
_symmetry_Int_Tables_number   1
_chemical_formula_structural   NaI
_chemical_formula_sum   'Na4 I4'
_cell_volume   279.20656153
_cell_formula_units_Z   4
loop_
 _symmetry_equiv_pos_site_id
 _symmetry_equiv_pos_as_xyz
  1  'x, y, z'
loop_
 _atom_site_type_symbol
 _atom_site_label
 _atom_site_symmetry_multiplicity
 _atom_site_fract_x
 _atom_site_fract_y
 _atom_site_fract_z
 _atom_site_occupancy
  Na  Na0  1  0.24728797  0.75645819  0.57733305  1
  Na  Na1  1  0.74729496  0.24355722  0.57736176  1
  Na  Na2  1  0.75272953  0.24347584  0.07728876  1
  Na  Na3  1  0.25275680  0.75649804  0.07733104  1
  I  I4  1  0.41605925  0.25415623  0.32810546  1
  I  I5  1  -0.08393062  0.74585373  0.32809095  1
  I  I6  1  0.58392298  0.74592117  0.82802538  1
  I  I7  1  0.08387914  0.25407957  0.82803288  1
