# generated using pymatgen
data_NaI
_symmetry_space_group_name_H-M   'P 1'
_cell_length_a   10.95982048
_cell_length_b   10.95271460
_cell_length_c   9.31045006
_cell_angle_alpha   90.00005550
_cell_angle_beta   89.99976289
_cell_angle_gamma   120.06266737
_symmetry_Int_Tables_number   1
_chemical_formula_structural   NaI
_chemical_formula_sum   'Na6 I6'
_cell_volume   967.27936886
_cell_formula_units_Z   6
loop_
 _symmetry_equiv_pos_site_id
 _symmetry_equiv_pos_as_xyz
  1  'x, y, z'
loop_
 _atom_site_type_symbol
 _atom_site_label
 _atom_site_symmetry_multiplicity
 _atom_site_fract_x
 _atom_site_fract_y
 _atom_site_fract_z
 _atom_site_occupancy
  Na  Na0  1  0.14430479  0.45234928  0.58570669  1
  Na  Na1  1  0.69170067  0.14491169  0.91927509  1
  Na  Na2  1  0.30829517  0.85508939  0.91927404  1
  Na  Na3  1  0.45287429  0.30798531  0.25274776  1
  Na  Na4  1  0.54711786  0.69200974  0.25274906  1
  Na  Na5  1  0.85571063  0.54765453  0.58570895  1
  I  I6  1  0.26279122  0.42953689  0.30637288  1
  I  I7  1  0.83289356  0.26249382  0.63938804  1
  I  I8  1  0.16711954  0.73750981  0.63937729  1
  I  I9  1  0.42943439  0.16671138  -0.02694449  1
  I  I10  1  0.57055944  0.83329166  -0.02693854  1
  I  I11  1  0.73719843  0.57045650  0.30638519  1
