# generated using pymatgen
data_LiI
_symmetry_space_group_name_H-M   'P 1'
_cell_length_a   8.10589539
_cell_length_b   8.10589489
_cell_length_c   7.83213164
_cell_angle_alpha   89.95877512
_cell_angle_beta   89.95689571
_cell_angle_gamma   89.99999713
_symmetry_Int_Tables_number   1
_chemical_formula_structural   LiI
_chemical_formula_sum   'Li8 I8'
_cell_volume   514.61412907
_cell_formula_units_Z   8
loop_
 _symmetry_equiv_pos_site_id
 _symmetry_equiv_pos_as_xyz
  1  'x, y, z'
loop_
 _atom_site_type_symbol
 _atom_site_label
 _atom_site_symmetry_multiplicity
 _atom_site_fract_x
 _atom_site_fract_y
 _atom_site_fract_z
 _atom_site_occupancy
  Li  Li0  1  0.64780991  0.14612829  0.43810416  1
  Li  Li1  1  0.64612817  0.14781017  0.93810687  1
  Li  Li2  1  0.35219627  0.85387386  0.43795973  1
  Li  Li3  1  0.14612951  0.35219423  0.43803723  1
  Li  Li4  1  0.85387641  0.64780846  0.43802780  1
  Li  Li5  1  0.85219331  0.64612918  0.93803507  1
  Li  Li6  1  0.35387561  0.85219602  0.93795690  1
  Li  Li7  1  0.14780925  0.35387751  0.93803017  1
  I  I8  1  0.16911401  0.66780434  0.18852503  1
  I  I9  1  0.16779849  0.66910816  0.68852531  1
  I  I10  1  0.83087554  0.33220811  0.18829098  1
  I  I11  1  0.66778988  0.83088962  0.18841338  1
  I  I12  1  0.33219506  0.16912762  0.18840496  1
  I  I13  1  0.33088434  0.16778489  0.68840681  1
  I  I14  1  0.83220209  0.33086981  0.68829084  1
  I  I15  1  0.66912215  0.83218973  0.68841162  1
