# generated using pymatgen
data_Na2O2
_symmetry_space_group_name_H-M   'P 1'
_cell_length_a   4.06044285
_cell_length_b   4.09672529
_cell_length_c   6.81699001
_cell_angle_alpha   90.00236489
_cell_angle_beta   123.35438319
_cell_angle_gamma   89.99802345
_symmetry_Int_Tables_number   1
_chemical_formula_structural   Na2O2
_chemical_formula_sum   'Na4 O4'
_cell_volume   94.71920360
_cell_formula_units_Z   2
loop_
 _symmetry_equiv_pos_site_id
 _symmetry_equiv_pos_as_xyz
  1  'x, y, z'
loop_
 _atom_site_type_symbol
 _atom_site_label
 _atom_site_symmetry_multiplicity
 _atom_site_fract_x
 _atom_site_fract_y
 _atom_site_fract_z
 _atom_site_occupancy
  Na  Na0  1  0.13994189  0.25026601  -0.08000640  1
  Na  Na1  1  0.64004679  0.75026052  -0.07996838  1
  Na  Na2  1  0.14002169  0.74972909  0.42002055  1
  Na  Na3  1  0.63992505  0.24973374  0.41998875  1
  O  O4  1  0.88909040  0.24968207  0.16957209  1
  O  O5  1  0.38906455  0.74964569  0.16956952  1
  O  O6  1  0.88904819  0.75032740  0.66955680  1
  O  O7  1  0.38904544  0.25035549  0.66955132  1
