# generated using pymatgen
data_LiI
_symmetry_space_group_name_H-M   'P 1'
_cell_length_a   17.79230890
_cell_length_b   17.79538295
_cell_length_c   4.69325734
_cell_angle_alpha   90.00966864
_cell_angle_beta   89.99168917
_cell_angle_gamma   120.00749694
_symmetry_Int_Tables_number   1
_chemical_formula_structural   LiI
_chemical_formula_sum   'Li18 I18'
_cell_volume   1286.80229705
_cell_formula_units_Z   18
loop_
 _symmetry_equiv_pos_site_id
 _symmetry_equiv_pos_as_xyz
  1  'x, y, z'
loop_
 _atom_site_type_symbol
 _atom_site_label
 _atom_site_symmetry_multiplicity
 _atom_site_fract_x
 _atom_site_fract_y
 _atom_site_fract_z
 _atom_site_occupancy
  Li  Li0  1  0.20485679  0.94503684  0.76776965  1
  Li  Li1  1  0.92657936  0.53823683  0.56548235  1
  Li  Li2  1  0.79514145  0.05496316  0.23222929  1
  Li  Li3  1  0.74009164  0.79510010  0.76785865  1
  Li  Li4  1  0.61166341  0.07346539  0.56537069  1
  Li  Li5  1  0.94499800  0.74013027  0.23204710  1
  Li  Li6  1  0.72167009  0.59320253  0.10128702  1
  Li  Li7  1  0.05500158  0.25987014  0.76795352  1
  Li  Li8  1  0.25990638  0.20489933  0.23214253  1
  Li  Li9  1  0.27833117  0.40679641  -0.10128329  1
  Li  Li10  1  0.38833710  0.92653664  0.43462004  1
  Li  Li11  1  0.40675487  0.12843135  0.10119288  1
  Li  Li12  1  0.59324296  0.87156781  -0.10120432  1
  Li  Li13  1  0.07342438  0.46176460  0.43452994  1
  Li  Li14  1  0.87152299  0.27837258  0.10110647  1
  Li  Li15  1  0.12847867  0.72162780  -0.10109811  1
  Li  Li16  1  0.46181041  0.38829505  0.56556920  1
  Li  Li17  1  0.53819059  0.61170420  0.43442982  1
  I  I18  1  0.10407023  0.62899095  0.40670051  1
  I  I19  1  0.14164131  0.43734401  -0.07335019  1
  I  I20  1  0.89593262  0.37100962  0.59330859  1
  I  I21  1  0.52502779  0.89599118  0.40667645  1
  I  I22  1  0.29568028  0.85841839  -0.07319579  1
  I  I23  1  0.62901277  0.52508408  0.59347101  1
  I  I24  1  0.03765530  0.80824621  0.73986205  1
  I  I25  1  0.37098842  0.47491546  0.40653146  1
  I  I26  1  0.47497226  0.10401060  0.59331275  1
  I  I27  1  0.96234352  0.19175169  0.26013807  1
  I  I28  1  0.70432068  0.14158447  0.07318841  1
  I  I29  1  0.19168981  0.22932162  0.74002058  1
  I  I30  1  0.80830802  0.77067755  0.25997770  1
  I  I31  1  0.85836000  0.56265568  0.07336222  1
  I  I32  1  0.77073486  0.96232579  0.74002683  1
  I  I33  1  0.22926263  0.03767312  0.25997037  1
  I  I34  1  0.56259981  0.70434229  -0.07336960  1
  I  I35  1  0.43739786  0.29565627  0.07336515  1
