# generated using pymatgen
data_LiBr
_symmetry_space_group_name_H-M   'P 1'
_cell_length_a   7.80308964
_cell_length_b   7.80308477
_cell_length_c   10.93040781
_cell_angle_alpha   90.00002895
_cell_angle_beta   90.00021963
_cell_angle_gamma   90.00000331
_symmetry_Int_Tables_number   1
_chemical_formula_structural   LiBr
_chemical_formula_sum   'Li16 Br16'
_cell_volume   665.53252810
_cell_formula_units_Z   16
loop_
 _symmetry_equiv_pos_site_id
 _symmetry_equiv_pos_as_xyz
  1  'x, y, z'
loop_
 _atom_site_type_symbol
 _atom_site_label
 _atom_site_symmetry_multiplicity
 _atom_site_fract_x
 _atom_site_fract_y
 _atom_site_fract_z
 _atom_site_occupancy
  Li  Li0  1  0.49931338  0.25007636  0.73896364  1
  Li  Li1  1  0.75008106  0.49930903  0.98896394  1
  Li  Li2  1  0.50069125  0.25008002  0.23896426  1
  Li  Li3  1  0.50068797  0.74992325  0.73896464  1
  Li  Li4  1  0.24991807  0.50069058  0.98896460  1
  Li  Li5  1  0.74991926  -0.00068688  0.98896386  1
  Li  Li6  1  0.25008176  0.00068901  0.98896343  1
  Li  Li7  1  0.24992036  0.49931265  0.48896477  1
  Li  Li8  1  0.75007954  0.50068915  0.48896462  1
  Li  Li9  1  0.00068996  0.24992265  0.23896620  1
  Li  Li10  1  0.74991871  0.00069329  0.48896322  1
  Li  Li11  1  -0.00069036  0.75007550  0.23896526  1
  Li  Li12  1  0.25008300  -0.00069122  0.48896265  1
  Li  Li13  1  0.00069415  0.75007876  0.73896534  1
  Li  Li14  1  -0.00069199  0.24992174  0.73896573  1
  Li  Li15  1  0.49930816  0.74992136  0.23896432  1
  Br  Br16  1  0.75034230  0.50035003  0.73968204  1
  Br  Br17  1  0.00034881  0.75034288  -0.01031991  1
  Br  Br18  1  0.24965802  0.50034308  0.23968064  1
  Br  Br19  1  0.24965743  0.49965113  0.73968187  1
  Br  Br20  1  -0.00034768  0.24965666  -0.01031923  1
  Br  Br21  1  0.49964992  0.25034287  -0.01031704  1
  Br  Br22  1  0.50034824  0.74965623  -0.01031717  1
  Br  Br23  1  -0.00035043  0.75034194  0.48968280  1
  Br  Br24  1  0.00034853  0.24965685  0.48968231  1
  Br  Br25  1  0.74966247  -0.00034731  0.23968318  1
  Br  Br26  1  0.49965479  0.74965579  0.48967970  1
  Br  Br27  1  0.25033729  0.00034838  0.23968303  1
  Br  Br28  1  0.50034584  0.25034415  0.48967922  1
  Br  Br29  1  0.74966082  0.00034663  0.73967817  1
  Br  Br30  1  0.25033854  -0.00034844  0.73967876  1
  Br  Br31  1  0.75034082  0.49965388  0.23968109  1
