# generated using pymatgen
data_LiI
_symmetry_space_group_name_H-M   'P 1'
_cell_length_a   4.24336083
_cell_length_b   6.98612417
_cell_length_c   8.42627927
_cell_angle_alpha   89.99999938
_cell_angle_beta   119.88414416
_cell_angle_gamma   89.99999851
_symmetry_Int_Tables_number   1
_chemical_formula_structural   LiI
_chemical_formula_sum   'Li4 I4'
_cell_volume   216.58011197
_cell_formula_units_Z   4
loop_
 _symmetry_equiv_pos_site_id
 _symmetry_equiv_pos_as_xyz
  1  'x, y, z'
loop_
 _atom_site_type_symbol
 _atom_site_label
 _atom_site_symmetry_multiplicity
 _atom_site_fract_x
 _atom_site_fract_y
 _atom_site_fract_z
 _atom_site_occupancy
  Li  Li0  1  -0.00347958  0.99920712  0.24757117  1
  Li  Li1  1  0.00347933  0.49920702  0.25242891  1
  Li  Li2  1  0.00348621  0.00079383  0.75243523  1
  Li  Li3  1  -0.00348597  0.50079366  0.74756469  1
  I  I4  1  0.66730187  0.24977580  0.91681018  1
  I  I5  1  0.33269816  0.74977580  0.58318983  1
  I  I6  1  0.33269872  0.75022338  0.08318989  1
  I  I7  1  0.66730125  0.25022339  0.41681011  1
