# generated using pymatgen
data_LiBr
_symmetry_space_group_name_H-M   'P 1'
_cell_length_a   11.54515170
_cell_length_b   11.54511266
_cell_length_c   7.92781412
_cell_angle_alpha   90.01455248
_cell_angle_beta   89.98562019
_cell_angle_gamma   120.00618340
_symmetry_Int_Tables_number   1
_chemical_formula_structural   LiBr
_chemical_formula_sum   'Li18 Br18'
_cell_volume   915.07107447
_cell_formula_units_Z   18
loop_
 _symmetry_equiv_pos_site_id
 _symmetry_equiv_pos_as_xyz
  1  'x, y, z'
loop_
 _atom_site_type_symbol
 _atom_site_label
 _atom_site_symmetry_multiplicity
 _atom_site_fract_x
 _atom_site_fract_y
 _atom_site_fract_z
 _atom_site_occupancy
  Li  Li0  1  0.12856554  0.25981538  0.29569977  1
  Li  Li1  1  0.12851514  -0.13126725  0.79566987  1
  Li  Li2  1  0.07352125  0.53810206  0.46236179  1
  Li  Li3  1  0.46459510  0.92644776  0.46238584  1
  Li  Li4  1  0.40687951  0.20206979  0.62904841  1
  Li  Li5  1  0.74021560  -0.13126332  0.29571819  1
  Li  Li6  1  0.46460010  0.53815097  0.96233901  1
  Li  Li7  1  0.07354624  0.53540386  0.96238207  1
  Li  Li8  1  0.13126537  0.87148405  0.29567141  1
  Li  Li9  1  0.13126331  0.25978576  0.79571602  1
  Li  Li10  1  0.46190040  0.92647692  0.96236713  1
  Li  Li11  1  0.46184936  0.53540122  0.46233952  1
  Li  Li12  1  0.79793228  0.20482008  0.62900815  1
  Li  Li13  1  0.79793177  0.59312345  0.12904784  1
  Li  Li14  1  0.74018776  0.87143292  0.79569810  1
  Li  Li15  1  0.40685171  0.20476686  0.12903006  1
  Li  Li16  1  0.79523568  0.59314995  0.62902847  1
  Li  Li17  1  0.79518199  0.20206936  0.12900725  1
  Br  Br18  1  0.90795000  0.45269120  0.20145287  1
  Br  Br19  1  0.90790898  0.45528125  0.70153128  1
  Br  Br20  1  0.88064057  0.75871827  0.36812093  1
  Br  Br21  1  0.87802417  0.11925465  0.36825306  1
  Br  Br22  1  0.21408464  0.78864711  0.53491279  1
  Br  Br23  1  0.54741156  0.45530462  0.20158399  1
  Br  Br24  1  0.87804900  0.75875527  0.86819130  1
  Br  Br25  1  0.88074777  0.12197884  0.86825029  1
  Br  Br26  1  0.54471366  0.09208814  0.20152662  1
  Br  Br27  1  0.54468905  0.45258129  0.70158295  1
  Br  Br28  1  0.24128353  0.11936075  0.86812157  1
  Br  Br29  1  0.24124345  0.12195276  0.36819490  1
  Br  Br30  1  0.21138231  0.42542028  0.53485897  1
  Br  Br31  1  0.21136004  0.78591916  0.03491778  1
  Br  Br32  1  0.54730563  0.09205020  0.70145683  1
  Br  Br33  1  0.21397307  0.42538254  0.03478813  1
  Br  Br34  1  0.57461667  0.78602641  0.53478945  1
  Br  Br35  1  0.57457784  0.78861743  0.03486269  1
