# generated using pymatgen
data_NaI
_symmetry_space_group_name_H-M   'P 1'
_cell_length_a   4.62188123
_cell_length_b   9.22397042
_cell_length_c   6.52476640
_cell_angle_alpha   90.00005482
_cell_angle_beta   89.99999404
_cell_angle_gamma   90.00008818
_symmetry_Int_Tables_number   1
_chemical_formula_structural   NaI
_chemical_formula_sum   'Na4 I4'
_cell_volume   278.16446554
_cell_formula_units_Z   4
loop_
 _symmetry_equiv_pos_site_id
 _symmetry_equiv_pos_as_xyz
  1  'x, y, z'
loop_
 _atom_site_type_symbol
 _atom_site_label
 _atom_site_symmetry_multiplicity
 _atom_site_fract_x
 _atom_site_fract_y
 _atom_site_fract_z
 _atom_site_occupancy
  Na  Na0  1  0.50065719  0.12153956  0.74573582  1
  Na  Na1  1  0.49934429  0.62153975  0.75426823  1
  Na  Na2  1  -0.00065735  0.87846031  0.24572935  1
  Na  Na3  1  0.00065600  0.37846017  0.25426625  1
  I  I4  1  -0.00114736  0.87255775  0.74813293  1
  I  I5  1  0.00114824  0.37255765  0.75186647  1
  I  I6  1  0.50114734  0.12744235  0.24813522  1
  I  I7  1  0.49885165  0.62744245  0.25186574  1
