# generated using pymatgen
data_LiI
_symmetry_space_group_name_H-M   'P 1'
_cell_length_a   6.91531229
_cell_length_b   5.96889460
_cell_length_c   6.39725691
_cell_angle_alpha   89.99990085
_cell_angle_beta   90.00160565
_cell_angle_gamma   89.99992073
_symmetry_Int_Tables_number   1
_chemical_formula_structural   LiI
_chemical_formula_sum   'Li4 I4'
_cell_volume   264.05810285
_cell_formula_units_Z   4
loop_
 _symmetry_equiv_pos_site_id
 _symmetry_equiv_pos_as_xyz
  1  'x, y, z'
loop_
 _atom_site_type_symbol
 _atom_site_label
 _atom_site_symmetry_multiplicity
 _atom_site_fract_x
 _atom_site_fract_y
 _atom_site_fract_z
 _atom_site_occupancy
  Li  Li0  1  0.49937188  0.25338542  0.00264283  1
  Li  Li1  1  -0.00062804  0.24661468  0.00264930  1
  Li  Li2  1  0.50062856  0.74663979  0.50264354  1
  Li  Li3  1  0.00062866  0.75336053  0.50263833  1
  I  I4  1  0.74850400  0.00109250  0.25434182  1
  I  I5  1  0.24850780  0.49890727  0.25434152  1
  I  I6  1  0.25149168  -0.00109158  0.75434097  1
  I  I7  1  0.75149547  0.50109140  0.75434137  1
