# generated using pymatgen
data_KI
_symmetry_space_group_name_H-M   'P 1'
_cell_length_a   5.11147221
_cell_length_b   10.10949352
_cell_length_c   7.17793190
_cell_angle_alpha   90.00000119
_cell_angle_beta   90.00000009
_cell_angle_gamma   90.00000417
_symmetry_Int_Tables_number   1
_chemical_formula_structural   KI
_chemical_formula_sum   'K4 I4'
_cell_volume   370.91528955
_cell_formula_units_Z   4
loop_
 _symmetry_equiv_pos_site_id
 _symmetry_equiv_pos_as_xyz
  1  'x, y, z'
loop_
 _atom_site_type_symbol
 _atom_site_label
 _atom_site_symmetry_multiplicity
 _atom_site_fract_x
 _atom_site_fract_y
 _atom_site_fract_z
 _atom_site_occupancy
  K  K0  1  0.49966604  0.12769408  0.74947399  1
  K  K1  1  0.50033400  0.62769409  0.75052749  1
  K  K2  1  0.00033400  0.87230591  0.24947248  1
  K  K3  1  -0.00033396  0.37230592  0.25052604  1
  I  I4  1  -0.00037240  0.87762518  0.74942537  1
  I  I5  1  0.00037235  0.37762520  0.75057486  1
  I  I6  1  0.50037236  0.12237482  0.24942517  1
  I  I7  1  0.49962761  0.62237480  0.25057460  1
