# generated using pymatgen
data_LiBr
_symmetry_space_group_name_H-M   'P 1'
_cell_length_a   10.27019377
_cell_length_b   10.26997855
_cell_length_c   9.80604042
_cell_angle_alpha   90.00766923
_cell_angle_beta   89.99722733
_cell_angle_gamma   120.00562767
_symmetry_Int_Tables_number   1
_chemical_formula_structural   LiBr
_chemical_formula_sum   'Li18 Br18'
_cell_volume   895.66963380
_cell_formula_units_Z   18
loop_
 _symmetry_equiv_pos_site_id
 _symmetry_equiv_pos_as_xyz
  1  'x, y, z'
loop_
 _atom_site_type_symbol
 _atom_site_label
 _atom_site_symmetry_multiplicity
 _atom_site_fract_x
 _atom_site_fract_y
 _atom_site_fract_z
 _atom_site_occupancy
  Li  Li0  1  0.45001268  0.06270745  0.64528025  1
  Li  Li1  1  0.05411626  0.78333993  0.68785401  1
  Li  Li2  1  0.54998764  0.93729195  0.35472032  1
  Li  Li3  1  0.61272705  0.55000493  0.64527605  1
  Li  Li4  1  0.72919123  -0.05416345  0.68780985  1
  Li  Li5  1  0.06267377  0.61267529  0.35468256  1
  Li  Li6  1  0.60427574  0.72094689  0.97910834  1
  Li  Li7  1  0.93732575  0.38732379  0.64531661  1
  Li  Li8  1  0.38727319  0.44999469  0.35472409  1
  Li  Li9  1  0.39572297  0.27905164  0.02089045  1
  Li  Li10  1  0.27080978  0.05416424  0.31219173  1
  Li  Li11  1  0.27909879  0.88333311  0.97907586  1
  Li  Li12  1  0.72090002  0.11666660  0.02092482  1
  Li  Li13  1  -0.05411470  0.21666063  0.31214520  1
  Li  Li14  1  0.11670041  0.39575893  0.97907969  1
  Li  Li15  1  0.88329885  0.60424213  0.02092055  1
  Li  Li16  1  0.21662907  0.27077559  0.68784753  1
  Li  Li17  1  0.78337074  0.72922491  0.31215089  1
  Br  Br18  1  0.47247235  0.09107343  0.14531601  1
  Br  Br19  1  0.04809380  0.80580125  0.18805063  1
  Br  Br20  1  0.52752730  0.90892633  0.85468418  1
  Br  Br21  1  0.61860358  0.52751513  0.14529371  1
  Br  Br22  1  0.75764465  0.95187935  0.18802740  1
  Br  Br23  1  0.09102695  0.61857538  0.85468487  1
  Br  Br24  1  0.57567591  0.71478816  0.47864155  1
  Br  Br25  1  0.90897325  0.38142547  0.14531596  1
  Br  Br26  1  0.38139620  0.47248438  0.85470569  1
  Br  Br27  1  0.42432427  0.28521116  0.52135805  1
  Br  Br28  1  0.24235581  0.04812135  0.81197283  1
  Br  Br29  1  0.28524168  0.86084822  0.47861346  1
  Br  Br30  1  0.71475795  0.13915145  0.52138692  1
  Br  Br31  1  0.95190621  0.19419941  0.81194968  1
  Br  Br32  1  0.13913778  0.42437204  0.47863755  1
  Br  Br33  1  0.86086282  0.57562776  0.52136266  1
  Br  Br34  1  0.19420946  0.24231399  0.18802794  1
  Br  Br35  1  0.80579083  0.75768646  0.81197210  1
