# generated using pymatgen
data_LiI
_symmetry_space_group_name_H-M   'P 1'
_cell_length_a   12.56797816
_cell_length_b   12.56797527
_cell_length_c   8.68641319
_cell_angle_alpha   90.00813968
_cell_angle_beta   89.99194686
_cell_angle_gamma   120.00794686
_symmetry_Int_Tables_number   1
_chemical_formula_structural   LiI
_chemical_formula_sum   'Li18 I18'
_cell_volume   1188.13847940
_cell_formula_units_Z   18
loop_
 _symmetry_equiv_pos_site_id
 _symmetry_equiv_pos_as_xyz
  1  'x, y, z'
loop_
 _atom_site_type_symbol
 _atom_site_label
 _atom_site_symmetry_multiplicity
 _atom_site_fract_x
 _atom_site_fract_y
 _atom_site_fract_z
 _atom_site_occupancy
  Li  Li0  1  0.53558937  0.46412156  0.06509443  1
  Li  Li1  1  0.53555090  0.07146807  0.56499167  1
  Li  Li2  1  0.86920444  0.13108863  0.23163868  1
  Li  Li3  1  0.26196364  0.13088055  0.23150285  1
  Li  Li4  1  0.20257770  0.40488178  0.39813218  1
  Li  Li5  1  0.53585837  0.07147183  0.06499822  1
  Li  Li6  1  0.26188815  0.13106763  0.73151715  1
  Li  Li7  1  0.86912202  0.73803792  0.73149928  1
  Li  Li8  1  0.92853389  0.46444745  0.06498472  1
  Li  Li9  1  0.92852834  0.46414045  0.56499631  1
  Li  Li10  1  0.86890881  0.13079366  0.73163832  1
  Li  Li11  1  0.86893425  0.73811366  0.23151032  1
  Li  Li12  1  0.59513452  0.79776739  0.39812623  1
  Li  Li13  1  0.59511567  0.79742043  0.89813427  1
  Li  Li14  1  0.53588347  0.46441626  0.56509311  1
  Li  Li15  1  0.20261323  0.79774375  0.89814478  1
  Li  Li16  1  0.20225470  0.79738425  0.39814373  1
  Li  Li17  1  0.20223522  0.40486351  0.89812096  1
  I  I18  1  0.12007918  0.88004542  0.15814220  1
  I  I19  1  0.12003325  0.24002817  0.65811872  1
  I  I20  1  0.45329206  0.54650425  0.32514008  1
  I  I21  1  0.09325727  0.54672050  0.32497696  1
  I  I22  1  0.78655118  0.57329860  0.49153380  1
  I  I23  1  0.11999676  0.24001386  0.15810058  1
  I  I24  1  0.09324595  0.54652309  0.82500772  1
  I  I25  1  0.45327756  0.90674246  0.82498114  1
  I  I26  1  0.75996627  0.87996320  0.15812237  1
  I  I27  1  0.75998539  0.88000122  0.65810200  1
  I  I28  1  0.45349582  0.54670634  0.82513945  1
  I  I29  1  0.45347589  0.90675505  0.32501344  1
  I  I30  1  0.42663538  0.21322129  0.49160799  1
  I  I31  1  0.42670307  0.21345059  0.99154068  1
  I  I32  1  0.11995834  0.87992176  0.65814187  1
  I  I33  1  0.78657545  0.21320552  0.99172387  1
  I  I34  1  0.78679238  0.21342420  0.49172375  1
  I  I35  1  0.78678212  0.57336569  0.99160357  1
