# generated using pymatgen
data_LiBr
_symmetry_space_group_name_H-M   'P 1'
_cell_length_a   6.60073019
_cell_length_b   6.59677883
_cell_length_c   10.59961930
_cell_angle_alpha   89.84470268
_cell_angle_beta   90.34455801
_cell_angle_gamma   120.02360386
_symmetry_Int_Tables_number   1
_chemical_formula_structural   LiBr
_chemical_formula_sum   'Li9 Br9'
_cell_volume   399.60745286
_cell_formula_units_Z   9
loop_
 _symmetry_equiv_pos_site_id
 _symmetry_equiv_pos_as_xyz
  1  'x, y, z'
loop_
 _atom_site_type_symbol
 _atom_site_label
 _atom_site_symmetry_multiplicity
 _atom_site_fract_x
 _atom_site_fract_y
 _atom_site_fract_z
 _atom_site_occupancy
  Li  Li0  1  0.33291312  0.00048327  0.11973476  1
  Li  Li1  1  0.33252270  -0.00064034  0.78641270  1
  Li  Li2  1  0.66634081  0.66719806  0.78643438  1
  Li  Li3  1  0.66594953  0.66603445  0.45306934  1
  Li  Li4  1  -0.00039028  0.33379388  0.45307671  1
  Li  Li5  1  0.33374356  0.00015806  0.45308289  1
  Li  Li6  1  -0.00073267  0.33266284  0.11972725  1
  Li  Li7  1  0.00037784  0.33336775  0.78643646  1
  Li  Li8  1  0.66707762  0.66684770  0.11975331  1
  Br  Br9  1  0.66670065  -0.00043421  0.60631217  1
  Br  Br10  1  0.33401081  0.33355165  0.27298690  1
  Br  Br11  1  0.00000594  0.66624209  0.27291775  1
  Br  Br12  1  0.66739415  0.00022499  0.93965490  1
  Br  Br13  1  0.33332104  0.33284969  0.93966933  1
  Br  Br14  1  0.00001647  0.66691978  0.93959743  1
  Br  Br15  1  0.00071316  0.66692853  0.60625613  1
  Br  Br16  1  0.66669376  0.00024282  0.27297262  1
  Br  Br17  1  0.33334179  0.33356900  0.60632421  1
