# generated using pymatgen
data_LiBr
_symmetry_space_group_name_H-M   'P 1'
_cell_length_a   11.92913762
_cell_length_b   11.92884644
_cell_length_c   11.92989870
_cell_angle_alpha   90.00361761
_cell_angle_beta   90.00463437
_cell_angle_gamma   89.98754213
_symmetry_Int_Tables_number   1
_chemical_formula_structural   LiBr
_chemical_formula_sum   'Li24 Br24'
_cell_volume   1697.63468614
_cell_formula_units_Z   24
loop_
 _symmetry_equiv_pos_site_id
 _symmetry_equiv_pos_as_xyz
  1  'x, y, z'
loop_
 _atom_site_type_symbol
 _atom_site_label
 _atom_site_symmetry_multiplicity
 _atom_site_fract_x
 _atom_site_fract_y
 _atom_site_fract_z
 _atom_site_occupancy
  Li  Li0  1  0.19397062  0.00401158  0.93965574  1
  Li  Li1  1  0.69396369  0.49594291  0.06032231  1
  Li  Li2  1  0.43956811  0.19396658  0.49590736  1
  Li  Li3  1  0.43957306  0.30601807  -0.00397380  1
  Li  Li4  1  0.50400395  0.56031113  0.80602176  1
  Li  Li5  1  0.93971496  0.19397772  0.00405757  1
  Li  Li6  1  0.06031162  0.69396619  0.49600309  1
  Li  Li7  1  0.56043724  0.80603745  0.50410888  1
  Li  Li8  1  -0.00408796  0.43966860  0.30602618  1
  Li  Li9  1  0.00398619  0.93957860  0.19399042  1
  Li  Li10  1  0.49588502  0.06045757  0.69396662  1
  Li  Li11  1  0.80600166  0.50397951  0.56042394  1
  Li  Li12  1  0.30604859  -0.00414460  0.43956907  1
  Li  Li13  1  0.06029069  0.80602472  -0.00406704  1
  Li  Li14  1  0.93969395  0.30602466  0.50399062  1
  Li  Li15  1  0.56041850  0.69398431  0.00396676  1
  Li  Li16  1  0.49598413  0.43969387  0.19397941  1
  Li  Li17  1  0.00409845  0.56033471  0.69396691  1
  Li  Li18  1  -0.00397699  0.06042065  0.80600689  1
  Li  Li19  1  0.50412387  0.93954119  0.30604450  1
  Li  Li20  1  0.19399384  0.49602526  0.43957145  1
  Li  Li21  1  0.69395255  0.00414017  0.56044415  1
  Li  Li22  1  0.80602726  -0.00401223  0.06033638  1
  Li  Li23  1  0.30603629  0.50406223  0.93967269  1
  Br  Br24  1  0.09230034  0.62095586  0.30680784  1
  Br  Br25  1  0.59235936  0.87921377  0.69327858  1
  Br  Br26  1  0.80682520  0.09243685  0.87908448  1
  Br  Br27  1  0.80678871  0.40762213  0.37915089  1
  Br  Br28  1  0.12094691  0.19319729  0.90767658  1
  Br  Br29  1  0.30672245  0.09235629  0.62079354  1
  Br  Br30  1  0.69320494  0.59229217  0.87906568  1
  Br  Br31  1  0.19317088  0.90756493  0.12091696  1
  Br  Br32  1  0.37921100  0.80671297  0.40763924  1
  Br  Br33  1  0.62086920  0.30674988  0.09239682  1
  Br  Br34  1  0.87908244  0.69318051  0.59243930  1
  Br  Br35  1  0.90764040  0.12087254  0.19321236  1
  Br  Br36  1  0.40756551  0.37907428  0.80687497  1
  Br  Br37  1  0.69327830  0.90764679  0.37920804  1
  Br  Br38  1  0.30680278  0.40770244  0.12093918  1
  Br  Br39  1  0.19319921  0.59237650  0.62084383  1
  Br  Br40  1  0.87904566  0.80680526  0.09232384  1
  Br  Br41  1  0.62078893  0.19329244  0.59236132  1
  Br  Br42  1  0.37913830  0.69324213  0.90760450  1
  Br  Br43  1  0.12090570  0.30681006  0.40755933  1
  Br  Br44  1  0.09235618  0.87913562  0.80678935  1
  Br  Br45  1  0.59243879  0.62092274  0.19313056  1
  Br  Br46  1  0.90769464  0.37902974  0.69319341  1
  Br  Br47  1  0.40764488  0.12079599  0.30671756  1
