# generated using pymatgen
data_KI
_symmetry_space_group_name_H-M   'P 1'
_cell_length_a   5.10323768
_cell_length_b   5.05845854
_cell_length_c   17.49029550
_cell_angle_alpha   90.00000397
_cell_angle_beta   55.04736391
_cell_angle_gamma   90.00000148
_symmetry_Int_Tables_number   1
_chemical_formula_structural   KI
_chemical_formula_sum   'K4 I4'
_cell_volume   370.06398331
_cell_formula_units_Z   4
loop_
 _symmetry_equiv_pos_site_id
 _symmetry_equiv_pos_as_xyz
  1  'x, y, z'
loop_
 _atom_site_type_symbol
 _atom_site_label
 _atom_site_symmetry_multiplicity
 _atom_site_fract_x
 _atom_site_fract_y
 _atom_site_fract_z
 _atom_site_occupancy
  K  K0  1  -0.00039271  0.24362605  0.87498675  1
  K  K1  1  0.00039388  0.74362607  0.62501272  1
  K  K2  1  0.00039228  0.75637393  0.12501337  1
  K  K3  1  -0.00039330  0.25637388  0.37498714  1
  I  I4  1  0.50020293  0.75571670  0.37481870  1
  I  I5  1  0.49979582  0.25571674  0.12518156  1
  I  I6  1  0.49979722  0.24428334  0.62518132  1
  I  I7  1  0.50020388  0.74428329  0.87481844  1
