# generated using pymatgen
data_LiI
_symmetry_space_group_name_H-M   'P 1'
_cell_length_a   10.44943718
_cell_length_b   6.97926304
_cell_length_c   7.03525410
_cell_angle_alpha   90.00051870
_cell_angle_beta   90.00045585
_cell_angle_gamma   89.99997282
_symmetry_Int_Tables_number   1
_chemical_formula_structural   LiI
_chemical_formula_sum   'Li8 I8'
_cell_volume   513.07665369
_cell_formula_units_Z   8
loop_
 _symmetry_equiv_pos_site_id
 _symmetry_equiv_pos_as_xyz
  1  'x, y, z'
loop_
 _atom_site_type_symbol
 _atom_site_label
 _atom_site_symmetry_multiplicity
 _atom_site_fract_x
 _atom_site_fract_y
 _atom_site_fract_z
 _atom_site_occupancy
  Li  Li0  1  0.63145827  0.33784308  0.87106585  1
  Li  Li1  1  0.13144943  0.66215492  0.37106707  1
  Li  Li2  1  0.86854284  0.83784100  0.87106426  1
  Li  Li3  1  0.36854250  0.66215349  0.87106485  1
  Li  Li4  1  0.13145619  0.16215194  0.87106391  1
  Li  Li5  1  0.86855026  0.33784842  0.37106849  1
  Li  Li6  1  0.36854961  0.16215528  0.37106541  1
  Li  Li7  1  0.63145130  0.83785221  0.37107030  1
  I  I8  1  0.37551691  0.26933841  0.75603633  1
  I  I9  1  0.87551016  0.73065825  0.25603592  1
  I  I10  1  0.12448285  0.76933735  0.75603712  1
  I  I11  1  0.62448336  0.73065659  0.75603599  1
  I  I12  1  0.87551649  0.23065579  0.75603599  1
  I  I13  1  0.12448945  0.26934636  0.25603435  1
  I  I14  1  0.62448981  0.23065980  0.25603664  1
  I  I15  1  0.37551055  0.76934712  0.25603598  1
