# generated using pymatgen
data_LiBr
_symmetry_space_group_name_H-M   'P 1'
_cell_length_a   7.45523343
_cell_length_b   6.30260560
_cell_length_c   4.37388607
_cell_angle_alpha   89.99859254
_cell_angle_beta   90.00004952
_cell_angle_gamma   90.00187435
_symmetry_Int_Tables_number   1
_chemical_formula_structural   LiBr
_chemical_formula_sum   'Li4 Br4'
_cell_volume   205.51751681
_cell_formula_units_Z   4
loop_
 _symmetry_equiv_pos_site_id
 _symmetry_equiv_pos_as_xyz
  1  'x, y, z'
loop_
 _atom_site_type_symbol
 _atom_site_label
 _atom_site_symmetry_multiplicity
 _atom_site_fract_x
 _atom_site_fract_y
 _atom_site_fract_z
 _atom_site_occupancy
  Li  Li0  1  0.65913771  0.32491773  -0.25180370  1
  Li  Li1  1  0.34086750  0.82491441  0.75181321  1
  Li  Li2  1  0.84086470  0.67508428  0.24818682  1
  Li  Li3  1  0.15913502  0.17508365  0.25180260  1
  Br  Br4  1  0.17277146  0.76221737  0.25223163  1
  Br  Br5  1  0.82723507  0.26220935  0.24778441  1
  Br  Br6  1  0.32722592  0.23778443  0.75221627  1
  Br  Br7  1  0.67276263  0.73778878  0.74776877  1
