# generated using pymatgen
data_KI
_symmetry_space_group_name_H-M   'P 1'
_cell_length_a   8.57644929
_cell_length_b   5.00951422
_cell_length_c   8.67805400
_cell_angle_alpha   90.00018805
_cell_angle_beta   89.99986150
_cell_angle_gamma   89.99912669
_symmetry_Int_Tables_number   1
_chemical_formula_structural   KI
_chemical_formula_sum   'K4 I4'
_cell_volume   372.84256383
_cell_formula_units_Z   4
loop_
 _symmetry_equiv_pos_site_id
 _symmetry_equiv_pos_as_xyz
  1  'x, y, z'
loop_
 _atom_site_type_symbol
 _atom_site_label
 _atom_site_symmetry_multiplicity
 _atom_site_fract_x
 _atom_site_fract_y
 _atom_site_fract_z
 _atom_site_occupancy
  K  K0  1  0.25048721  0.74978153  0.90558621  1
  K  K1  1  0.75048699  0.25021800  0.90558591  1
  K  K2  1  0.74951337  0.25021753  0.40558604  1
  K  K3  1  0.24951349  0.74978251  0.40558552  1
  I  I4  1  0.58393234  0.75040640  0.15559044  1
  I  I5  1  0.08393188  0.24960120  0.15558966  1
  I  I6  1  0.41606709  0.24959495  0.65559049  1
  I  I7  1  0.91606763  0.75039789  0.65558972  1
