# generated using pymatgen
data_LiBr
_symmetry_space_group_name_H-M   'P 1'
_cell_length_a   7.78230477
_cell_length_b   5.50697748
_cell_length_c   3.89559279
_cell_angle_alpha   90.00539875
_cell_angle_beta   89.99993636
_cell_angle_gamma   90.00051488
_symmetry_Int_Tables_number   1
_chemical_formula_structural   LiBr
_chemical_formula_sum   'Li4 Br4'
_cell_volume   166.95333005
_cell_formula_units_Z   4
loop_
 _symmetry_equiv_pos_site_id
 _symmetry_equiv_pos_as_xyz
  1  'x, y, z'
loop_
 _atom_site_type_symbol
 _atom_site_label
 _atom_site_symmetry_multiplicity
 _atom_site_fract_x
 _atom_site_fract_y
 _atom_site_fract_z
 _atom_site_occupancy
  Li  Li0  1  0.87410935  0.75079126  0.00066200  1
  Li  Li1  1  0.12588528  0.25077819  0.49933304  1
  Li  Li2  1  0.62589985  0.24920824  0.50062263  1
  Li  Li3  1  0.37410692  0.74922005  -0.00061784  1
  Br  Br4  1  0.62441302  0.74949501  0.49948935  1
  Br  Br5  1  0.37558812  0.24948258  0.00050571  1
  Br  Br6  1  0.87559152  0.25051921  -0.00053843  1
  Br  Br7  1  0.12440595  0.75050545  0.50054355  1
