# generated using pymatgen
data_LiBr
_symmetry_space_group_name_H-M   'P 1'
_cell_length_a   6.25946873
_cell_length_b   5.07162600
_cell_length_c   6.25864008
_cell_angle_alpha   90.00257293
_cell_angle_beta   89.99947383
_cell_angle_gamma   89.99919057
_symmetry_Int_Tables_number   1
_chemical_formula_structural   LiBr
_chemical_formula_sum   'Li4 Br4'
_cell_volume   198.68481211
_cell_formula_units_Z   4
loop_
 _symmetry_equiv_pos_site_id
 _symmetry_equiv_pos_as_xyz
  1  'x, y, z'
loop_
 _atom_site_type_symbol
 _atom_site_label
 _atom_site_symmetry_multiplicity
 _atom_site_fract_x
 _atom_site_fract_y
 _atom_site_fract_z
 _atom_site_occupancy
  Li  Li0  1  0.50009422  -0.00029878  0.50009074  1
  Li  Li1  1  0.49991276  0.49970098  -0.00009022  1
  Li  Li2  1  0.99991146  0.00029530  0.00008734  1
  Li  Li3  1  0.00009564  0.50029618  0.49990827  1
  Br  Br4  1  0.24983827  0.75012615  0.75026455  1
  Br  Br5  1  0.75015504  0.25012868  0.74973728  1
  Br  Br6  1  0.25015458  0.24987454  0.25026702  1
  Br  Br7  1  0.74983802  0.74987695  0.24973502  1
