# generated using pymatgen
data_NaI
_symmetry_space_group_name_H-M   'P 1'
_cell_length_a   4.60981715
_cell_length_b   6.52402414
_cell_length_c   9.24013232
_cell_angle_alpha   89.99878416
_cell_angle_beta   90.11374293
_cell_angle_gamma   90.00122909
_symmetry_Int_Tables_number   1
_chemical_formula_structural   NaI
_chemical_formula_sum   'Na4 I4'
_cell_volume   277.89235120
_cell_formula_units_Z   4
loop_
 _symmetry_equiv_pos_site_id
 _symmetry_equiv_pos_as_xyz
  1  'x, y, z'
loop_
 _atom_site_type_symbol
 _atom_site_label
 _atom_site_symmetry_multiplicity
 _atom_site_fract_x
 _atom_site_fract_y
 _atom_site_fract_z
 _atom_site_occupancy
  Na  Na0  1  0.75397417  0.24949773  0.87406545  1
  Na  Na1  1  0.24602503  0.74949640  0.62593497  1
  Na  Na2  1  0.24602580  0.75050224  0.12593455  1
  Na  Na3  1  0.75397500  0.25050364  0.37406502  1
  I  I4  1  0.74714649  0.74996795  0.37606483  1
  I  I5  1  0.25285151  0.24996743  0.12393461  1
  I  I6  1  0.25285353  0.25003208  0.62393518  1
  I  I7  1  0.74714847  0.75003255  0.87606539  1
