# generated using pymatgen
data_LiBr
_symmetry_space_group_name_H-M   'P 1'
_cell_length_a   4.17272553
_cell_length_b   4.17253062
_cell_length_c   10.14099139
_cell_angle_alpha   90.00087566
_cell_angle_beta   89.99753647
_cell_angle_gamma   120.00495209
_symmetry_Int_Tables_number   1
_chemical_formula_structural   LiBr
_chemical_formula_sum   'Li3 Br3'
_cell_volume   152.90043549
_cell_formula_units_Z   3
loop_
 _symmetry_equiv_pos_site_id
 _symmetry_equiv_pos_as_xyz
  1  'x, y, z'
loop_
 _atom_site_type_symbol
 _atom_site_label
 _atom_site_symmetry_multiplicity
 _atom_site_fract_x
 _atom_site_fract_y
 _atom_site_fract_z
 _atom_site_occupancy
  Li  Li0  1  0.66845559  -0.00204974  0.71155861  1
  Li  Li1  1  0.00199294  0.67076931  0.37867152  1
  Li  Li2  1  0.32951636  0.33126608  0.04515166  1
  Br  Br3  1  0.66787700  0.00398438  0.46076497  1
  Br  Br4  1  -0.00360737  0.66392570  0.12772384  1
  Br  Br5  1  0.33576546  0.33210429  0.79407916  1
