# generated using pymatgen
data_LiI
_symmetry_space_group_name_H-M   'P 1'
_cell_length_a   12.65399518
_cell_length_b   12.65390923
_cell_length_c   10.49352001
_cell_angle_alpha   89.99992918
_cell_angle_beta   89.99967209
_cell_angle_gamma   120.00248770
_symmetry_Int_Tables_number   1
_chemical_formula_structural   LiI
_chemical_formula_sum   'Li18 I18'
_cell_volume   1455.10160215
_cell_formula_units_Z   18
loop_
 _symmetry_equiv_pos_site_id
 _symmetry_equiv_pos_as_xyz
  1  'x, y, z'
loop_
 _atom_site_type_symbol
 _atom_site_label
 _atom_site_symmetry_multiplicity
 _atom_site_fract_x
 _atom_site_fract_y
 _atom_site_fract_z
 _atom_site_occupancy
  Li  Li0  1  0.77489404  -0.02304708  0.89934323  1
  Li  Li1  1  0.46429971  0.10779703  0.43290697  1
  Li  Li2  1  0.22510529  0.02304814  0.10065673  1
  Li  Li3  1  0.20206035  0.22511189  0.89934280  1
  Li  Li4  1  0.64349195  0.53569793  0.43290632  1
  Li  Li5  1  -0.02304822  0.20206213  0.10066936  1
  Li  Li6  1  0.68958392  0.13110308  0.23325975  1
  Li  Li7  1  0.02304835  0.79793709  0.89933386  1
  Li  Li8  1  0.79793676  0.77488741  0.10065557  1
  Li  Li9  1  0.31041742  0.86889876  0.76673864  1
  Li  Li10  1  0.35650778  0.46430132  0.56709228  1
  Li  Li11  1  0.86890246  0.55848526  0.23325887  1
  Li  Li12  1  0.13109821  0.44151537  0.76674323  1
  Li  Li13  1  0.53570099  0.89220197  0.56709234  1
  Li  Li14  1  0.44151709  0.31040978  0.23326146  1
  Li  Li15  1  0.55848344  0.68959008  0.76673724  1
  Li  Li16  1  0.89220721  0.35650009  0.43291080  1
  Li  Li17  1  0.10779293  0.64349929  0.56709018  1
  I  I18  1  0.13445407  0.44487320  0.50191799  1
  I  I19  1  0.35623018  0.46779709  0.83212270  1
  I  I20  1  0.86554581  0.55512649  0.49808367  1
  I  I21  1  0.31042092  0.86554472  0.50191120  1
  I  I22  1  0.11156039  0.64377084  0.83211894  1
  I  I23  1  0.44486793  0.31041769  0.49808777  1
  I  I24  1  0.22214007  0.02294913  0.83526488  1
  I  I25  1  0.55513256  0.68958169  0.50191073  1
  I  I26  1  0.68957908  0.13445457  0.49808808  1
  I  I27  1  0.77785829  0.97704993  0.16473555  1
  I  I28  1  0.88844111  0.35623024  0.16788220  1
  I  I29  1  0.97705257  0.19919117  0.83527717  1
  I  I30  1  0.02294571  0.80081045  0.16472573  1
  I  I31  1  0.64377056  0.53220228  0.16787629  1
  I  I32  1  0.80081239  0.77787013  0.83526637  1
  I  I33  1  0.19918880  0.22213166  0.16473231  1
  I  I34  1  0.53220845  0.88843978  0.83212169  1
  I  I35  1  0.46779141  0.11155942  0.16787712  1
