# generated using pymatgen
data_LiBr
_symmetry_space_group_name_H-M   'P 1'
_cell_length_a   7.33889683
_cell_length_b   7.33894889
_cell_length_c   6.49342818
_cell_angle_alpha   90.00004822
_cell_angle_beta   90.00004400
_cell_angle_gamma   120.00109930
_symmetry_Int_Tables_number   1
_chemical_formula_structural   LiBr
_chemical_formula_sum   'Li6 Br6'
_cell_volume   302.87575367
_cell_formula_units_Z   6
loop_
 _symmetry_equiv_pos_site_id
 _symmetry_equiv_pos_as_xyz
  1  'x, y, z'
loop_
 _atom_site_type_symbol
 _atom_site_label
 _atom_site_symmetry_multiplicity
 _atom_site_fract_x
 _atom_site_fract_y
 _atom_site_fract_z
 _atom_site_occupancy
  Li  Li0  1  0.00084392  0.33371926  0.71114693  1
  Li  Li1  1  0.66711652  0.00081161  0.21115096  1
  Li  Li2  1  0.33288203  -0.00081288  0.71115149  1
  Li  Li3  1  0.33369736  0.33286285  0.21114102  1
  Li  Li4  1  0.66630518  0.66713854  0.71113822  1
  Li  Li5  1  -0.00084451  0.66628091  0.21114764  1
  Br  Br6  1  -0.00066685  0.66625019  0.60126565  1
  Br  Br7  1  0.33307514  -0.00068203  0.10126847  1
  Br  Br8  1  0.66692350  0.00068166  0.60126827  1
  Br  Br9  1  0.66623501  0.66690749  0.10125623  1
  Br  Br10  1  0.33376558  0.33309268  0.60125861  1
  Br  Br11  1  0.00066713  0.33374972  0.10126616  1
