# generated using pymatgen
data_LiI
_symmetry_space_group_name_H-M   'P 1'
_cell_length_a   9.67994505
_cell_length_b   9.67995636
_cell_length_c   6.17936072
_cell_angle_alpha   89.99999078
_cell_angle_beta   90.00001051
_cell_angle_gamma   89.99997705
_symmetry_Int_Tables_number   1
_chemical_formula_structural   LiI
_chemical_formula_sum   'Li8 I8'
_cell_volume   579.01503315
_cell_formula_units_Z   8
loop_
 _symmetry_equiv_pos_site_id
 _symmetry_equiv_pos_as_xyz
  1  'x, y, z'
loop_
 _atom_site_type_symbol
 _atom_site_label
 _atom_site_symmetry_multiplicity
 _atom_site_fract_x
 _atom_site_fract_y
 _atom_site_fract_z
 _atom_site_occupancy
  Li  Li0  1  0.13689636  0.35831192  0.01175981  1
  Li  Li1  1  0.85831179  0.36310396  0.48823972  1
  Li  Li2  1  0.86310391  0.64168797  0.01175747  1
  Li  Li3  1  0.64168824  0.13689625  -0.01175731  1
  Li  Li4  1  0.35831163  0.86310393  -0.01175995  1
  Li  Li5  1  0.36310405  0.14168803  0.51175742  1
  Li  Li6  1  0.14168800  0.63689604  0.48824170  1
  Li  Li7  1  0.63689622  0.85831179  0.51175959  1
  I  I8  1  0.64980966  0.84375228  -0.00126278  1
  I  I9  1  0.34375225  0.85019001  0.50126291  1
  I  I10  1  0.35019024  0.15624787  -0.00126278  1
  I  I11  1  0.15624767  0.64980985  0.00126344  1
  I  I12  1  0.84375232  0.35019006  0.00126284  1
  I  I13  1  0.85019014  0.65624771  0.49873726  1
  I  I14  1  0.65624770  0.14980992  0.50126344  1
  I  I15  1  0.14980981  0.34375242  0.49873721  1
