# generated using pymatgen
data_LiBr
_symmetry_space_group_name_H-M   'P 1'
_cell_length_a   11.92836616
_cell_length_b   11.92836921
_cell_length_c   7.30013736
_cell_angle_alpha   90.00110410
_cell_angle_beta   89.99885253
_cell_angle_gamma   120.00432853
_symmetry_Int_Tables_number   1
_chemical_formula_structural   LiBr
_chemical_formula_sum   'Li18 Br18'
_cell_volume   899.50742846
_cell_formula_units_Z   18
loop_
 _symmetry_equiv_pos_site_id
 _symmetry_equiv_pos_as_xyz
  1  'x, y, z'
loop_
 _atom_site_type_symbol
 _atom_site_label
 _atom_site_symmetry_multiplicity
 _atom_site_fract_x
 _atom_site_fract_y
 _atom_site_fract_z
 _atom_site_occupancy
  Li  Li0  1  -0.04143041  0.16723646  0.24253916  1
  Li  Li1  1  -0.04142360  0.79133928  0.74252271  1
  Li  Li2  1  0.16615214  0.70814889  0.40912432  1
  Li  Li3  1  0.54200107  0.83384150  0.40911189  1
  Li  Li4  1  0.49943474  0.12470518  0.57575675  1
  Li  Li5  1  0.83275952  0.79133133  0.24252518  1
  Li  Li6  1  0.54198938  0.70815957  0.90910493  1
  Li  Li7  1  0.16615875  0.45799837  0.90911309  1
  Li  Li8  1  0.20866066  0.04142413  0.24252301  1
  Li  Li9  1  0.20866985  0.16724055  0.74252736  1
  Li  Li10  1  0.29185149  0.83384824  0.90912458  1
  Li  Li11  1  0.29183937  0.45800946  0.40910613  1
  Li  Li12  1  0.87528103  0.37472935  0.57574446  1
  Li  Li13  1  0.87529497  0.50056430  0.07575703  1
  Li  Li14  1  0.83276309  0.04142976  0.74253815  1
  Li  Li15  1  0.49943419  0.37472769  0.07577074  1
  Li  Li16  1  0.62527214  0.50056619  0.57577063  1
  Li  Li17  1  0.62527032  0.12471879  0.07574536  1
  Br  Br18  1  0.16660777  0.20829414  0.40890262  1
  Br  Br19  1  0.16660224  0.95830925  0.90888998  1
  Br  Br20  1  0.12499443  0.49999445  0.57549725  1
  Br  Br21  1  0.37499840  0.87498886  0.57550204  1
  Br  Br22  1  0.45834588  0.29166305  0.74212894  1
  Br  Br23  1  0.79171595  0.95830846  0.40890976  1
  Br  Br24  1  0.37500042  0.50000780  0.07548858  1
  Br  Br25  1  0.12501125  0.62500179  0.07550193  1
  Br  Br26  1  0.04169068  0.83339791  0.40888981  1
  Br  Br27  1  0.04169153  0.20828368  0.90890993  1
  Br  Br28  1  0.50000614  0.87500595  0.07549687  1
  Br  Br29  1  0.49999240  0.62499986  0.57548774  1
  Br  Br30  1  0.70833857  0.16667866  0.74210444  1
  Br  Br31  1  0.70833767  0.54165461  0.24212869  1
  Br  Br32  1  0.79170554  0.83339196  0.90890130  1
  Br  Br33  1  0.45833188  0.16667127  0.24212156  1
  Br  Br34  1  0.83332901  0.54166804  0.74212128  1
  Br  Br35  1  0.83332154  0.29166122  0.24210424  1
