# generated using pymatgen
data_LiI
_symmetry_space_group_name_H-M   'P 1'
_cell_length_a   7.20440086
_cell_length_b   4.83369522
_cell_length_c   7.45162126
_cell_angle_alpha   90.00001901
_cell_angle_beta   90.00083380
_cell_angle_gamma   90.00008455
_symmetry_Int_Tables_number   1
_chemical_formula_structural   LiI
_chemical_formula_sum   'Li4 I4'
_cell_volume   259.49434944
_cell_formula_units_Z   4
loop_
 _symmetry_equiv_pos_site_id
 _symmetry_equiv_pos_as_xyz
  1  'x, y, z'
loop_
 _atom_site_type_symbol
 _atom_site_label
 _atom_site_symmetry_multiplicity
 _atom_site_fract_x
 _atom_site_fract_y
 _atom_site_fract_z
 _atom_site_occupancy
  Li  Li0  1  0.16881592  0.00104889  0.70359594  1
  Li  Li1  1  0.66881881  0.49895068  0.70359252  1
  Li  Li2  1  0.83118155  -0.00104919  0.20358970  1
  Li  Li3  1  0.33118107  0.50104967  0.20358692  1
  I  I4  1  0.30948832  0.50089377  0.57691689  1
  I  I5  1  0.80948837  -0.00089328  0.57691536  1
  I  I6  1  0.69051176  0.49910572  0.07691415  1
  I  I7  1  0.19051420  0.00089375  0.07691484  1
