# generated using pymatgen
data_LiI
_symmetry_space_group_name_H-M   'P 1'
_cell_length_a   8.55726381
_cell_length_b   8.55725527
_cell_length_c   14.06160661
_cell_angle_alpha   89.99988553
_cell_angle_beta   90.00003981
_cell_angle_gamma   89.99827593
_symmetry_Int_Tables_number   1
_chemical_formula_structural   LiI
_chemical_formula_sum   'Li16 I16'
_cell_volume   1029.68491948
_cell_formula_units_Z   16
loop_
 _symmetry_equiv_pos_site_id
 _symmetry_equiv_pos_as_xyz
  1  'x, y, z'
loop_
 _atom_site_type_symbol
 _atom_site_label
 _atom_site_symmetry_multiplicity
 _atom_site_fract_x
 _atom_site_fract_y
 _atom_site_fract_z
 _atom_site_occupancy
  Li  Li0  1  0.68842862  0.31143053  0.43561416  1
  Li  Li1  1  0.81142931  0.68842970  0.68561452  1
  Li  Li2  1  0.31156695  0.31142171  0.93561446  1
  Li  Li3  1  0.31157322  0.68856905  0.43561370  1
  Li  Li4  1  0.18857212  0.31157293  0.68561411  1
  Li  Li5  1  0.68857861  0.18843950  0.68561610  1
  Li  Li6  1  0.31142356  0.81156535  0.68561523  1
  Li  Li7  1  0.18857511  0.68842893  0.18561474  1
  Li  Li8  1  0.81142445  0.31156972  0.18561483  1
  Li  Li9  1  0.81157469  0.18856958  0.93561419  1
  Li  Li10  1  0.68856881  0.81157636  0.18561365  1
  Li  Li11  1  0.18842332  0.81142951  0.93561418  1
  Li  Li12  1  0.31143115  0.18842498  0.18561445  1
  Li  Li13  1  0.81156551  0.81142407  0.43561494  1
  Li  Li14  1  0.18843570  0.18857336  0.43561536  1
  Li  Li15  1  0.68842945  0.68857753  0.93561434  1
  I  I16  1  0.75075727  0.44177442  0.81063676  1
  I  I17  1  0.94176970  0.75075438  0.06063588  1
  I  I18  1  0.24925021  0.44176900  0.31063395  1
  I  I19  1  0.24924398  0.55822703  0.81063660  1
  I  I20  1  0.05822868  0.24924366  0.06063646  1
  I  I21  1  0.55822934  0.25074994  0.06063322  1
  I  I22  1  0.44176935  0.74925002  0.06063340  1
  I  I23  1  0.05822845  0.75075020  0.56063365  1
  I  I24  1  0.94177332  0.24924959  0.56063366  1
  I  I25  1  0.74924527  0.05822993  0.31063592  1
  I  I26  1  0.55822738  0.74924331  0.56063596  1
  I  I27  1  0.25075509  0.94176950  0.31063521  1
  I  I28  1  0.44177382  0.25075460  0.56063620  1
  I  I29  1  0.74924863  0.94177361  0.81063319  1
  I  I30  1  0.25074997  0.05822746  0.81063342  1
  I  I31  1  0.75074896  0.55823055  0.31063348  1
