# generated using pymatgen
data_LiBr
_symmetry_space_group_name_H-M   'P 1'
_cell_length_a   5.50573321
_cell_length_b   7.78310785
_cell_length_c   3.89528207
_cell_angle_alpha   90.00026917
_cell_angle_beta   90.00013332
_cell_angle_gamma   90.00000273
_symmetry_Int_Tables_number   1
_chemical_formula_structural   LiBr
_chemical_formula_sum   'Li4 Br4'
_cell_volume   166.91951875
_cell_formula_units_Z   4
loop_
 _symmetry_equiv_pos_site_id
 _symmetry_equiv_pos_as_xyz
  1  'x, y, z'
loop_
 _atom_site_type_symbol
 _atom_site_label
 _atom_site_symmetry_multiplicity
 _atom_site_fract_x
 _atom_site_fract_y
 _atom_site_fract_z
 _atom_site_occupancy
  Li  Li0  1  0.00062556  0.62547794  0.25043443  1
  Li  Li1  1  0.99937549  0.12547811  0.24957010  1
  Li  Li2  1  0.49937568  0.37452245  0.75043038  1
  Li  Li3  1  0.50062512  0.87452250  0.74956615  1
  Br  Br4  1  -0.00034175  0.37493132  0.74870571  1
  Br  Br5  1  0.00034072  0.87492969  0.75129555  1
  Br  Br6  1  0.50034119  0.62506944  0.24870425  1
  Br  Br7  1  0.49965799  0.12506856  0.25129342  1
