# generated using pymatgen
data_LiBr
_symmetry_space_group_name_H-M   'P 1'
_cell_length_a   11.42183090
_cell_length_b   11.42182784
_cell_length_c   7.29023363
_cell_angle_alpha   89.99863330
_cell_angle_beta   90.00146589
_cell_angle_gamma   120.00226235
_symmetry_Int_Tables_number   1
_chemical_formula_structural   LiBr
_chemical_formula_sum   'Li18 Br18'
_cell_volume   823.63257138
_cell_formula_units_Z   18
loop_
 _symmetry_equiv_pos_site_id
 _symmetry_equiv_pos_as_xyz
  1  'x, y, z'
loop_
 _atom_site_type_symbol
 _atom_site_label
 _atom_site_symmetry_multiplicity
 _atom_site_fract_x
 _atom_site_fract_y
 _atom_site_fract_z
 _atom_site_occupancy
  Li  Li0  1  0.89867141  0.09827868  0.65608166  1
  Li  Li1  1  0.89866110  0.80038244  0.15605485  1
  Li  Li2  1  0.23460304  0.76759575  0.82232574  1
  Li  Li3  1  0.53299832  0.76541764  0.82230794  1
  Li  Li4  1  0.56793872  0.13364785  0.98827018  1
  Li  Li5  1  0.90171096  0.80039038  0.65606857  1
  Li  Li6  1  0.53300906  0.76760227  0.32229547  1
  Li  Li7  1  0.23458119  0.46700159  0.32230629  1
  Li  Li8  1  0.19961755  0.10133916  0.65605629  1
  Li  Li9  1  0.19960945  0.09828959  0.15606896  1
  Li  Li10  1  0.23240406  0.76539763  0.32232628  1
  Li  Li11  1  0.23239731  0.46699239  0.82229303  1
  Li  Li12  1  0.86635983  0.43431782  0.98825970  1
  Li  Li13  1  0.86635308  0.43205834  0.48827537  1
  Li  Li14  1  0.90172144  0.10132888  0.15608145  1
  Li  Li15  1  0.56795335  0.43430310  0.48826741  1
  Li  Li16  1  0.56569713  0.43204711  0.98826704  1
  Li  Li17  1  0.56568120  0.13363933  0.48825885  1
  Br  Br18  1  0.44307599  0.56132309  0.56045644  1
  Br  Br19  1  0.44308077  0.88175468  0.06046968  1
  Br  Br20  1  0.77191369  0.22353884  0.72667155  1
  Br  Br21  1  0.45163022  0.22808535  0.72666963  1
  Br  Br22  1  0.10525503  0.21507627  0.89405082  1
  Br  Br23  1  0.43867817  0.88174534  0.56046616  1
  Br  Br24  1  0.45162211  0.22353607  0.22667203  1
  Br  Br25  1  0.77191450  0.54836997  0.22666827  1
  Br  Br26  1  0.11824596  0.55691950  0.56047007  1
  Br  Br27  1  0.11825428  0.56132198  0.06046606  1
  Br  Br28  1  0.77646080  0.22808622  0.22667134  1
  Br  Br29  1  0.77646418  0.54837763  0.72667088  1
  Br  Br30  1  0.78491621  0.89016705  0.89405330  1
  Br  Br31  1  0.78492450  0.89474531  0.39405105  1
  Br  Br32  1  0.43867607  0.55692343  0.06045642  1
  Br  Br33  1  0.10525361  0.89016788  0.39404182  1
  Br  Br34  1  0.10983261  0.89474726  0.89404182  1
  Br  Br35  1  0.10983310  0.21508417  0.39405332  1
