# generated using pymatgen
data_LiBr
_symmetry_space_group_name_H-M   'P 1'
_cell_length_a   3.74254293
_cell_length_b   7.64643261
_cell_length_c   7.25702135
_cell_angle_alpha   90.00885487
_cell_angle_beta   90.00000087
_cell_angle_gamma   90.00000076
_symmetry_Int_Tables_number   1
_chemical_formula_structural   LiBr
_chemical_formula_sum   'Li4 Br4'
_cell_volume   207.67491989
_cell_formula_units_Z   4
loop_
 _symmetry_equiv_pos_site_id
 _symmetry_equiv_pos_as_xyz
  1  'x, y, z'
loop_
 _atom_site_type_symbol
 _atom_site_label
 _atom_site_symmetry_multiplicity
 _atom_site_fract_x
 _atom_site_fract_y
 _atom_site_fract_z
 _atom_site_occupancy
  Li  Li0  1  0.75020597  0.75149026  0.88976487  1
  Li  Li1  1  0.25020497  0.24850947  0.88975758  1
  Li  Li2  1  0.24979527  0.24850919  0.38975747  1
  Li  Li3  1  0.74979403  0.75149037  0.38976478  1
  Br  Br4  1  0.74785023  0.24895042  0.63977317  1
  Br  Br5  1  0.24784994  0.75105076  0.63978288  1
  Br  Br6  1  0.25214991  0.75104994  0.13978296  1
  Br  Br7  1  0.75214969  0.24894959  0.13977337  1
