# generated using pymatgen
data_LiI
_symmetry_space_group_name_H-M   'P 1'
_cell_length_a   6.04102010
_cell_length_b   4.79615335
_cell_length_c   9.62554269
_cell_angle_alpha   89.99956781
_cell_angle_beta   91.75166035
_cell_angle_gamma   89.99525147
_symmetry_Int_Tables_number   1
_chemical_formula_structural   LiI
_chemical_formula_sum   'Li4 I4'
_cell_volume   278.75686605
_cell_formula_units_Z   4
loop_
 _symmetry_equiv_pos_site_id
 _symmetry_equiv_pos_as_xyz
  1  'x, y, z'
loop_
 _atom_site_type_symbol
 _atom_site_label
 _atom_site_symmetry_multiplicity
 _atom_site_fract_x
 _atom_site_fract_y
 _atom_site_fract_z
 _atom_site_occupancy
  Li  Li0  1  -0.00128964  0.74929689  0.62526452  1
  Li  Li1  1  0.00129728  0.24931273  0.87473256  1
  Li  Li2  1  0.00129276  0.25070314  0.37473667  1
  Li  Li3  1  -0.00129756  0.75068712  0.12526626  1
  I  I4  1  0.76597559  0.75074713  0.37104749  1
  I  I5  1  0.23402034  0.25077915  0.12895370  1
  I  I6  1  0.23402345  0.24925285  0.62895251  1
  I  I7  1  0.76597779  0.74922099  0.87104628  1
