# generated using pymatgen
data_NaI
_symmetry_space_group_name_H-M   'P 1'
_cell_length_a   13.44580826
_cell_length_b   13.44580070
_cell_length_c   8.56737493
_cell_angle_alpha   89.97233699
_cell_angle_beta   90.02768859
_cell_angle_gamma   119.98330742
_symmetry_Int_Tables_number   1
_chemical_formula_structural   NaI
_chemical_formula_sum   'Na18 I18'
_cell_volume   1341.60586034
_cell_formula_units_Z   18
loop_
 _symmetry_equiv_pos_site_id
 _symmetry_equiv_pos_as_xyz
  1  'x, y, z'
loop_
 _atom_site_type_symbol
 _atom_site_label
 _atom_site_symmetry_multiplicity
 _atom_site_fract_x
 _atom_site_fract_y
 _atom_site_fract_z
 _atom_site_occupancy
  Na  Na0  1  -0.05897028  0.19780797  0.14111264  1
  Na  Na1  1  -0.05900255  0.74312286  0.64084360  1
  Na  Na2  1  0.13552408  0.72563745  0.30777712  1
  Na  Na3  1  0.59006423  0.86444474  0.30765935  1
  Na  Na4  1  0.46888863  0.07660188  0.47432429  1
  Na  Na5  1  0.80222162  0.74326841  0.14098838  1
  Na  Na6  1  0.59021017  0.72566900  0.80751005  1
  Na  Na7  1  0.13555515  0.40993584  0.80765868  1
  Na  Na8  1  0.25687734  0.05900257  0.14084475  1
  Na  Na9  1  0.25673201  0.19777858  0.64099086  1
  Na  Na10  1  0.27436265  0.86447539  0.80777792  1
  Na  Na11  1  0.27433074  0.40978991  0.30751029  1
  Na  Na12  1  0.92354187  0.39233486  0.47417870  1
  Na  Na13  1  0.92339815  0.53111140  -0.02567456  1
  Na  Na14  1  0.80219201  0.05897002  0.64111206  1
  Na  Na15  1  0.46885681  0.39230389  -0.02555613  1
  Na  Na16  1  0.60769576  0.53114352  0.47444329  1
  Na  Na17  1  0.60766468  0.07645752  -0.02582251  1
  I  I18  1  0.84071519  0.27774097  0.83466806  1
  I  I19  1  0.84067457  0.56298964  0.33481749  1
  I  I20  1  0.05559312  0.82595275  0.00133431  1
  I  I21  1  0.77036704  0.94440658  0.00147749  1
  I  I22  1  0.38892618  0.89629974  0.16814498  1
  I  I23  1  0.72225959  0.56296589  0.83481130  1
  I  I24  1  0.77034328  0.82599156  0.50148344  1
  I  I25  1  0.05559344  0.22963254  0.50147821  1
  I  I26  1  0.43701025  0.15932566  0.83481741  1
  I  I27  1  0.43703440  0.27774068  0.33481078  1
  I  I28  1  0.17404806  0.94440761  0.50133433  1
  I  I29  1  0.17400858  0.22965660  0.00148420  1
  I  I30  1  0.10367625  0.49265862  0.16815192  1
  I  I31  1  0.10369960  0.61107376  0.66814470  1
  I  I32  1  0.72225965  0.15928504  0.33466832  1
  I  I33  1  0.38892598  0.49261931  0.66800043  1
  I  I34  1  0.50738063  0.61107440  0.16799976  1
  I  I35  1  0.50734115  0.89632283  0.66815132  1
