# generated using pymatgen
data_LiBr
_symmetry_space_group_name_H-M   'P 1'
_cell_length_a   7.22905410
_cell_length_b   4.16771765
_cell_length_c   7.19763205
_cell_angle_alpha   90.00019368
_cell_angle_beta   109.87166005
_cell_angle_gamma   89.99981077
_symmetry_Int_Tables_number   1
_chemical_formula_structural   LiBr
_chemical_formula_sum   'Li4 Br4'
_cell_volume   203.94265029
_cell_formula_units_Z   4
loop_
 _symmetry_equiv_pos_site_id
 _symmetry_equiv_pos_as_xyz
  1  'x, y, z'
loop_
 _atom_site_type_symbol
 _atom_site_label
 _atom_site_symmetry_multiplicity
 _atom_site_fract_x
 _atom_site_fract_y
 _atom_site_fract_z
 _atom_site_occupancy
  Li  Li0  1  0.05238357  0.25298533  0.04080116  1
  Li  Li1  1  0.55238228  0.75298511  0.04080098  1
  Li  Li2  1  0.05237117  0.74701207  0.54079511  1
  Li  Li3  1  0.55237140  0.24701356  0.54079607  1
  Br  Br4  1  0.67773537  0.74712456  0.41727942  1
  Br  Br5  1  0.17773577  0.24712334  0.41727913  1
  Br  Br6  1  0.67773778  0.25287794  0.91727832  1
  Br  Br7  1  0.17773733  0.75287809  0.91727712  1
