# generated using pymatgen
data_LiBr
_symmetry_space_group_name_H-M   'P 1'
_cell_length_a   11.98772421
_cell_length_b   11.13706872
_cell_length_c   7.77978481
_cell_angle_alpha   89.99999714
_cell_angle_beta   90.00006846
_cell_angle_gamma   90.00007040
_symmetry_Int_Tables_number   1
_chemical_formula_structural   LiBr
_chemical_formula_sum   'Li16 Br16'
_cell_volume   1038.66435376
_cell_formula_units_Z   16
loop_
 _symmetry_equiv_pos_site_id
 _symmetry_equiv_pos_as_xyz
  1  'x, y, z'
loop_
 _atom_site_type_symbol
 _atom_site_label
 _atom_site_symmetry_multiplicity
 _atom_site_fract_x
 _atom_site_fract_y
 _atom_site_fract_z
 _atom_site_occupancy
  Li  Li0  1  0.86371119  0.50025695  0.94151556  1
  Li  Li1  1  0.13629304  0.49974398  0.94151624  1
  Li  Li2  1  0.38629072  0.75025577  0.19151617  1
  Li  Li3  1  0.63629131  0.49974358  0.44151822  1
  Li  Li4  1  0.88628949  0.75025716  0.69151679  1
  Li  Li5  1  0.11370991  0.74974372  0.19151745  1
  Li  Li6  1  0.36371061  0.50025560  0.44151724  1
  Li  Li7  1  0.88629013  0.25025799  0.19151682  1
  Li  Li8  1  0.11370994  0.24974287  0.69151914  1
  Li  Li9  1  0.36370861  0.00025553  0.94151957  1
  Li  Li10  1  0.63628871  -0.00025666  0.94151518  1
  Li  Li11  1  0.38628953  0.25025475  0.69151576  1
  Li  Li12  1  0.61371084  0.74974360  0.69151848  1
  Li  Li13  1  0.61371016  0.24974424  0.19151663  1
  Li  Li14  1  0.86370985  0.00025714  0.44151807  1
  Li  Li15  1  0.13628778  -0.00025741  0.44151662  1
  Br  Br16  1  0.49975077  0.32255707  0.44099634  1
  Br  Br17  1  0.50025082  0.67744092  0.44099469  1
  Br  Br18  1  0.75025019  0.57255847  0.69099826  1
  Br  Br19  1  0.00025236  0.67744275  -0.05900675  1
  Br  Br20  1  0.25025014  0.57255600  0.19099711  1
  Br  Br21  1  0.74974966  0.92744298  0.69099743  1
  Br  Br22  1  -0.00024999  0.32255755  -0.05900249  1
  Br  Br23  1  0.25024811  0.07255621  0.69099779  1
  Br  Br24  1  0.74974973  0.42744419  0.19099508  1
  Br  Br25  1  -0.00025244  0.82255763  0.44099299  1
  Br  Br26  1  0.00024977  0.17744302  0.44099660  1
  Br  Br27  1  0.75024994  0.07255817  0.19099422  1
  Br  Br28  1  0.24975010  0.92744362  0.19099894  1
  Br  Br29  1  0.24975089  0.42744222  0.69099688  1
  Br  Br30  1  0.49974888  0.82255674  -0.05900450  1
  Br  Br31  1  0.50024922  0.17744365  -0.05900435  1
