# generated using pymatgen
data_LiBr
_symmetry_space_group_name_H-M   'P 1'
_cell_length_a   3.94919431
_cell_length_b   3.94925527
_cell_length_c   13.06616361
_cell_angle_alpha   89.99998089
_cell_angle_beta   89.99994265
_cell_angle_gamma   89.99920161
_symmetry_Int_Tables_number   1
_chemical_formula_structural   LiBr
_chemical_formula_sum   'Li4 Br4'
_cell_volume   203.78480617
_cell_formula_units_Z   4
loop_
 _symmetry_equiv_pos_site_id
 _symmetry_equiv_pos_as_xyz
  1  'x, y, z'
loop_
 _atom_site_type_symbol
 _atom_site_label
 _atom_site_symmetry_multiplicity
 _atom_site_fract_x
 _atom_site_fract_y
 _atom_site_fract_z
 _atom_site_occupancy
  Li  Li0  1  0.50985708  0.48946688  0.19646560  1
  Li  Li1  1  0.48946771  0.49014335  0.44646820  1
  Li  Li2  1  0.49014210  0.51053318  0.69646803  1
  Li  Li3  1  0.51053300  0.50985723  0.94646779  1
  Br  Br4  1  0.99021903  0.49339949  0.57145895  1
  Br  Br5  1  0.49340004  0.00978131  0.82146031  1
  Br  Br6  1  0.00978092  0.50660042  0.07146177  1
  Br  Br7  1  0.50660013  0.99021815  0.32146042  1
