# generated using pymatgen
data_LiI
_symmetry_space_group_name_H-M   'P 1'
_cell_length_a   7.34273204
_cell_length_b   4.23633976
_cell_length_c   6.96842808
_cell_angle_alpha   90.00007068
_cell_angle_beta   90.00004739
_cell_angle_gamma   89.99998239
_symmetry_Int_Tables_number   1
_chemical_formula_structural   LiI
_chemical_formula_sum   'Li4 I4'
_cell_volume   216.76206783
_cell_formula_units_Z   4
loop_
 _symmetry_equiv_pos_site_id
 _symmetry_equiv_pos_as_xyz
  1  'x, y, z'
loop_
 _atom_site_type_symbol
 _atom_site_label
 _atom_site_symmetry_multiplicity
 _atom_site_fract_x
 _atom_site_fract_y
 _atom_site_fract_z
 _atom_site_occupancy
  Li  Li0  1  0.74990861  0.74558816  0.37875323  1
  Li  Li1  1  0.24990991  0.25441442  0.37875438  1
  Li  Li2  1  0.25009018  0.25441907  0.87875443  1
  Li  Li3  1  0.75009119  0.74558124  0.87875285  1
  I  I4  1  0.41706849  0.75103339  0.62692614  1
  I  I5  1  0.91706887  0.24896532  0.62692571  1
  I  I6  1  0.58293138  0.24896501  0.12692597  1
  I  I7  1  0.08293136  0.75103339  0.12692637  1
