# generated using pymatgen
data_LiBr
_symmetry_space_group_name_H-M   'P 1'
_cell_length_a   7.75337823
_cell_length_b   7.75338753
_cell_length_c   13.02849579
_cell_angle_alpha   89.99999875
_cell_angle_beta   90.00005278
_cell_angle_gamma   89.99997728
_symmetry_Int_Tables_number   1
_chemical_formula_structural   LiBr
_chemical_formula_sum   'Li16 Br16'
_cell_volume   783.20732237
_cell_formula_units_Z   16
loop_
 _symmetry_equiv_pos_site_id
 _symmetry_equiv_pos_as_xyz
  1  'x, y, z'
loop_
 _atom_site_type_symbol
 _atom_site_label
 _atom_site_symmetry_multiplicity
 _atom_site_fract_x
 _atom_site_fract_y
 _atom_site_fract_z
 _atom_site_occupancy
  Li  Li0  1  0.81617371  0.81662017  0.74957221  1
  Li  Li1  1  0.68337934  0.31617359  0.75042741  1
  Li  Li2  1  0.81617474  0.31662011  0.50042828  1
  Li  Li3  1  0.18382685  0.18337862  0.74957304  1
  Li  Li4  1  0.31661669  0.68382360  0.75042821  1
  Li  Li5  1  0.18337891  0.31617322  -0.00042875  1
  Li  Li6  1  0.81661900  0.68382542  -0.00042639  1
  Li  Li7  1  0.68337975  0.81617313  0.49957138  1
  Li  Li8  1  0.31662331  0.18382787  0.49957402  1
  Li  Li9  1  0.68382553  0.68337987  0.24957287  1
  Li  Li10  1  0.81662069  0.18382585  0.25042998  1
  Li  Li11  1  0.31617233  0.31662113  0.24957262  1
  Li  Li12  1  0.18338121  0.81617639  0.25042624  1
  Li  Li13  1  0.31617583  0.81661779  0.00042716  1
  Li  Li14  1  0.68382603  0.18337950  0.00042897  1
  Li  Li15  1  0.18382396  0.68338279  0.50042678  1
  Br  Br16  1  0.56438752  0.25054131  0.37479847  1
  Br  Br17  1  0.24946316  0.06438818  0.12520022  1
  Br  Br18  1  0.56438741  0.75053813  0.87520116  1
  Br  Br19  1  0.43561173  0.74946145  0.37479731  1
  Br  Br20  1  0.75054095  0.93561256  0.12520222  1
  Br  Br21  1  0.74946003  0.06438698  0.62479773  1
  Br  Br22  1  0.25053957  0.93561216  0.62479861  1
  Br  Br23  1  0.24946044  0.56438708  0.12479716  1
  Br  Br24  1  0.75054058  0.43561165  0.12479912  1
  Br  Br25  1  0.93561152  0.24945992  0.87479784  1
  Br  Br26  1  0.25053740  0.43561311  0.62520171  1
  Br  Br27  1  0.06438644  0.75053931  0.87479884  1
  Br  Br28  1  0.74946059  0.56438754  0.62520125  1
  Br  Br29  1  0.06438894  0.25053896  0.37520262  1
  Br  Br30  1  0.93561290  0.74946191  0.37520019  1
  Br  Br31  1  0.43561292  0.24946070  0.87520153  1
