# generated using pymatgen
data_KI
_symmetry_space_group_name_H-M   'P 1'
_cell_length_a   9.75873708
_cell_length_b   4.53256646
_cell_length_c   8.47181829
_cell_angle_alpha   90.00075538
_cell_angle_beta   89.99981292
_cell_angle_gamma   90.00004437
_symmetry_Int_Tables_number   1
_chemical_formula_structural   KI
_chemical_formula_sum   'K4 I4'
_cell_volume   374.72652008
_cell_formula_units_Z   4
loop_
 _symmetry_equiv_pos_site_id
 _symmetry_equiv_pos_as_xyz
  1  'x, y, z'
loop_
 _atom_site_type_symbol
 _atom_site_label
 _atom_site_symmetry_multiplicity
 _atom_site_fract_x
 _atom_site_fract_y
 _atom_site_fract_z
 _atom_site_occupancy
  K  K0  1  0.62620399  0.00006928  0.16726337  1
  K  K1  1  0.12620413  -0.00006887  0.16726295  1
  K  K2  1  0.37379588  -0.00006941  0.66726242  1
  K  K3  1  0.87379551  0.00006900  0.66726244  1
  I  I4  1  0.87637366  0.50207831  0.33456786  1
  I  I5  1  0.37637358  0.49792194  0.33456798  1
  I  I6  1  0.12362668  0.49792180  0.83456777  1
  I  I7  1  0.62362655  0.50207797  0.83456748  1
