# generated using pymatgen
data_KI
_symmetry_space_group_name_H-M   'P 1'
_cell_length_a   7.18404287
_cell_length_b   7.18191733
_cell_length_c   7.18356858
_cell_angle_alpha   89.99999982
_cell_angle_beta   90.00000193
_cell_angle_gamma   90.00000008
_symmetry_Int_Tables_number   1
_chemical_formula_structural   KI
_chemical_formula_sum   'K4 I4'
_cell_volume   370.63767158
_cell_formula_units_Z   4
loop_
 _symmetry_equiv_pos_site_id
 _symmetry_equiv_pos_as_xyz
  1  'x, y, z'
loop_
 _atom_site_type_symbol
 _atom_site_label
 _atom_site_symmetry_multiplicity
 _atom_site_fract_x
 _atom_site_fract_y
 _atom_site_fract_z
 _atom_site_occupancy
  K  K0  1  0.49838904  0.75010964  0.65155791  1
  K  K1  1  0.99838903  0.24989035  0.65155781  1
  K  K2  1  0.50161097  0.24989036  0.15155840  1
  K  K3  1  0.00161096  0.75010964  0.15155850  1
  I  I4  1  0.99786154  0.75034698  0.65134428  1
  I  I5  1  0.49786152  0.24965302  0.65134413  1
  I  I6  1  0.00213848  0.24965301  0.15134461  1
  I  I7  1  0.50213846  0.75034699  0.15134476  1
