# generated using pymatgen
data_LiBr
_symmetry_space_group_name_H-M   'P 1'
_cell_length_a   14.42298721
_cell_length_b   14.42297418
_cell_length_c   13.87942116
_cell_angle_alpha   90.00707173
_cell_angle_beta   89.99293161
_cell_angle_gamma   120.02744432
_symmetry_Int_Tables_number   1
_chemical_formula_structural   LiBr
_chemical_formula_sum   'Li36 Br36'
_cell_volume   2499.72283033
_cell_formula_units_Z   36
loop_
 _symmetry_equiv_pos_site_id
 _symmetry_equiv_pos_as_xyz
  1  'x, y, z'
loop_
 _atom_site_type_symbol
 _atom_site_label
 _atom_site_symmetry_multiplicity
 _atom_site_fract_x
 _atom_site_fract_y
 _atom_site_fract_z
 _atom_site_occupancy
  Li  Li0  1  0.13968153  0.97658940  0.57424573  1
  Li  Li1  1  0.49642521  0.80633251  0.09250732  1
  Li  Li2  1  0.50357104  0.30982339  0.40751017  1
  Li  Li3  1  0.50357505  0.19366739  0.90749284  1
  Li  Li4  1  0.82986733  0.47312204  0.75819960  1
  Li  Li5  1  0.17010713  0.64317603  0.74180839  1
  Li  Li6  1  0.35682442  0.82989327  0.24180800  1
  Li  Li7  1  0.30982447  0.50357088  0.09248989  1
  Li  Li8  1  0.64317535  0.17010717  0.75819178  1
  Li  Li9  1  0.02347566  0.16309253  0.57434413  1
  Li  Li10  1  0.17013266  0.52687820  0.24179994  1
  Li  Li11  1  0.30991111  0.80630429  0.59255117  1
  Li  Li12  1  0.69008868  0.19369606  0.40744912  1
  Li  Li13  1  0.13968083  0.16308107  0.07431623  1
  Li  Li14  1  0.82989282  0.35682430  0.25819227  1
  Li  Li15  1  0.69017547  0.49642886  0.90751003  1
  Li  Li16  1  0.97652471  0.83690728  0.42565484  1
  Li  Li17  1  0.49642843  0.69017650  0.59249029  1
  Li  Li18  1  0.52687440  0.35674784  0.75826514  1
  Li  Li19  1  0.47312166  0.82986865  0.74180070  1
  Li  Li20  1  0.83691983  0.86031962  0.57431550  1
  Li  Li21  1  0.47312516  0.64325190  0.24173503  1
  Li  Li22  1  0.52687799  0.17013133  0.25819971  1
  Li  Li23  1  0.16308072  0.13968048  0.42568367  1
  Li  Li24  1  0.86031876  0.02341050  0.42575364  1
  Li  Li25  1  0.86031960  0.83691865  0.92568381  1
  Li  Li26  1  0.19369704  0.69008920  0.09255072  1
  Li  Li27  1  0.80633243  0.49642493  0.40749352  1
  Li  Li28  1  0.80630306  0.30991128  0.90744874  1
  Li  Li29  1  0.19366705  0.50357535  0.59250713  1
  Li  Li30  1  0.83690807  0.97652359  0.07434470  1
  Li  Li31  1  0.35674724  0.52687530  0.74173501  1
  Li  Li32  1  0.64325238  0.47312476  0.25826542  1
  Li  Li33  1  0.16309235  0.02347598  0.92565522  1
  Li  Li34  1  0.02341079  0.86031845  0.07424572  1
  Li  Li35  1  0.97658958  0.13968121  0.92575447  1
  Br  Br36  1  0.30528197  0.83051524  0.77083398  1
  Br  Br37  1  0.80817806  0.97191102  0.89618301  1
  Br  Br38  1  0.19182819  0.16375351  0.60385906  1
  Br  Br39  1  0.19182234  0.02808869  0.10381693  1
  Br  Br40  1  0.14132875  0.63850262  0.56336762  1
  Br  Br41  1  0.85869819  0.49722591  0.93665364  1
  Br  Br42  1  0.50277386  0.14130043  0.43665379  1
  Br  Br43  1  0.16375376  0.19182896  0.89614086  1
  Br  Br44  1  0.49722576  0.85869942  0.56334671  1
  Br  Br45  1  0.16944049  0.47466433  0.77077545  1
  Br  Br46  1  0.85867082  0.36149771  0.43663308  1
  Br  Br47  1  0.16373161  0.97199406  0.39607116  1
  Br  Br48  1  0.83626883  0.02800586  0.60392824  1
  Br  Br49  1  0.30520475  0.47467961  0.27074654  1
  Br  Br50  1  0.14130225  0.50277461  0.06334580  1
  Br  Br51  1  0.83624656  0.80817068  0.10385916  1
  Br  Br52  1  0.83055949  0.52533619  0.22922529  1
  Br  Br53  1  0.80817235  0.83624653  0.39614013  1
  Br  Br54  1  0.36141180  0.50282973  0.56327571  1
  Br  Br55  1  0.63850181  0.14132863  0.93663252  1
  Br  Br56  1  0.52531920  0.69479556  0.77074698  1
  Br  Br57  1  0.63858750  0.49717018  0.43672480  1
  Br  Br58  1  0.36149862  0.85867160  0.06336720  1
  Br  Br59  1  0.47468047  0.30520439  0.22925354  1
  Br  Br60  1  0.69471798  0.16948521  0.22916643  1
  Br  Br61  1  0.69479469  0.52532004  0.72925338  1
  Br  Br62  1  0.02800633  0.83626895  0.89607102  1
  Br  Br63  1  0.97191145  0.80817719  0.60381657  1
  Br  Br64  1  0.97199403  0.16373062  0.10392915  1
  Br  Br65  1  0.02808892  0.19182269  0.39618265  1
  Br  Br66  1  0.52533514  0.83055846  0.27077592  1
  Br  Br67  1  0.50282906  0.36141194  0.93672455  1
  Br  Br68  1  0.49717105  0.63858784  0.06327575  1
  Br  Br69  1  0.47466418  0.16944114  0.72922440  1
  Br  Br70  1  0.16948561  0.69471785  0.27083357  1
  Br  Br71  1  0.83051411  0.30528240  0.72916582  1
