# generated using pymatgen
data_LiBr
_symmetry_space_group_name_H-M   'P 1'
_cell_length_a   11.35452927
_cell_length_b   12.54815630
_cell_length_c   12.50836166
_cell_angle_alpha   90.00000872
_cell_angle_beta   89.99993174
_cell_angle_gamma   89.99994979
_symmetry_Int_Tables_number   1
_chemical_formula_structural   LiBr
_chemical_formula_sum   'Li32 Br32'
_cell_volume   1782.17145598
_cell_formula_units_Z   32
loop_
 _symmetry_equiv_pos_site_id
 _symmetry_equiv_pos_as_xyz
  1  'x, y, z'
loop_
 _atom_site_type_symbol
 _atom_site_label
 _atom_site_symmetry_multiplicity
 _atom_site_fract_x
 _atom_site_fract_y
 _atom_site_fract_z
 _atom_site_occupancy
  Li  Li0  1  0.12492804  0.45585082  0.79440405  1
  Li  Li1  1  0.87507080  0.54414908  0.79440556  1
  Li  Li2  1  0.12507181  0.70585052  0.04440395  1
  Li  Li3  1  0.87507012  0.04414874  0.29440495  1
  Li  Li4  1  0.12507106  0.20585022  0.54440434  1
  Li  Li5  1  0.87507169  0.95585111  0.70559525  1
  Li  Li6  1  0.12492850  0.95585114  0.29440382  1
  Li  Li7  1  0.12492982  0.04414840  0.70559521  1
  Li  Li8  1  0.37492932  0.29414825  0.54440486  1
  Li  Li9  1  0.12507089  0.29414947  0.95559533  1
  Li  Li10  1  0.62507127  0.79414932  0.95559645  1
  Li  Li11  1  0.87492903  0.70585087  0.95559576  1
  Li  Li12  1  0.37492877  0.20585184  0.95559455  1
  Li  Li13  1  0.12492976  0.54414841  0.20559498  1
  Li  Li14  1  0.87507219  0.45585066  0.20559512  1
  Li  Li15  1  0.37492958  0.79414880  0.04440414  1
  Li  Li16  1  0.12507123  0.79414876  0.45559477  1
  Li  Li17  1  0.37492821  0.70585194  0.45559436  1
  Li  Li18  1  0.62492783  0.04415005  0.20559601  1
  Li  Li19  1  0.37507064  0.95585182  0.20559512  1
  Li  Li20  1  0.62492974  0.95585085  0.79440487  1
  Li  Li21  1  0.37507202  0.04414877  0.79440500  1
  Li  Li22  1  0.62507057  0.20585121  0.04440437  1
  Li  Li23  1  0.87492889  0.29414869  0.04440484  1
  Li  Li24  1  0.62507104  0.29414936  0.45559651  1
  Li  Li25  1  0.87492921  0.20585068  0.45559552  1
  Li  Li26  1  0.62492808  0.54414942  0.70559603  1
  Li  Li27  1  0.37506957  0.45585203  0.70559498  1
  Li  Li28  1  0.62492940  0.45585033  0.29440415  1
  Li  Li29  1  0.37507204  0.54414815  0.29440429  1
  Li  Li30  1  0.62507082  0.70585192  0.54440520  1
  Li  Li31  1  0.87492825  0.79414845  0.54440568  1
  Br  Br32  1  0.30846732  0.39415158  0.89430871  1
  Br  Br33  1  0.69153172  0.60584994  0.89430995  1
  Br  Br34  1  0.94153264  0.64415010  0.14431079  1
  Br  Br35  1  0.69153223  0.10584939  0.39431036  1
  Br  Br36  1  0.94153338  0.14415105  0.64430995  1
  Br  Br37  1  0.69153240  0.89414987  0.60568980  1
  Br  Br38  1  0.30846717  0.89415077  0.39430937  1
  Br  Br39  1  0.30846820  0.10584874  0.60569046  1
  Br  Br40  1  0.55846742  0.35584944  0.64431022  1
  Br  Br41  1  0.94153166  0.35584936  0.85569019  1
  Br  Br42  1  0.44153259  0.85584888  0.85569062  1
  Br  Br43  1  0.05846758  0.64415024  0.85568993  1
  Br  Br44  1  0.55846797  0.14415105  0.85569033  1
  Br  Br45  1  0.30846874  0.60584899  0.10569070  1
  Br  Br46  1  0.69153251  0.39415130  0.10569092  1
  Br  Br47  1  0.55846747  0.85584970  0.14431069  1
  Br  Br48  1  0.94153101  0.85584882  0.35569035  1
  Br  Br49  1  0.55846886  0.64415097  0.35569051  1
  Br  Br50  1  0.80846683  0.10584844  0.10569080  1
  Br  Br51  1  0.19153158  0.89415096  0.10568981  1
  Br  Br52  1  0.80846869  0.89415060  0.89430988  1
  Br  Br53  1  0.19153232  0.10584908  0.89430928  1
  Br  Br54  1  0.44153152  0.14415142  0.14430914  1
  Br  Br55  1  0.05846812  0.35584946  0.14431014  1
  Br  Br56  1  0.44153310  0.35584876  0.35569077  1
  Br  Br57  1  0.05846690  0.14415013  0.35568987  1
  Br  Br58  1  0.80846731  0.60584942  0.60568965  1
  Br  Br59  1  0.19153201  0.39415072  0.60568943  1
  Br  Br60  1  0.80846837  0.39415110  0.39431017  1
  Br  Br61  1  0.19153236  0.60584931  0.39430987  1
  Br  Br62  1  0.44153130  0.64415189  0.64430850  1
  Br  Br63  1  0.05846855  0.85584846  0.64430881  1
