# generated using pymatgen
data_NaI
_symmetry_space_group_name_H-M   'P 1'
_cell_length_a   17.39447606
_cell_length_b   17.62617933
_cell_length_c   4.61463395
_cell_angle_alpha   89.99159286
_cell_angle_beta   89.98853347
_cell_angle_gamma   89.99914555
_symmetry_Int_Tables_number   1
_chemical_formula_structural   NaI
_chemical_formula_sum   'Na16 I16'
_cell_volume   1414.83820828
_cell_formula_units_Z   16
loop_
 _symmetry_equiv_pos_site_id
 _symmetry_equiv_pos_as_xyz
  1  'x, y, z'
loop_
 _atom_site_type_symbol
 _atom_site_label
 _atom_site_symmetry_multiplicity
 _atom_site_fract_x
 _atom_site_fract_y
 _atom_site_fract_z
 _atom_site_occupancy
  Na  Na0  1  0.42496816  0.16285894  0.65559705  1
  Na  Na1  1  0.57501279  0.83714464  0.65576563  1
  Na  Na2  1  0.82502910  0.41286188  0.90556187  1
  Na  Na3  1  0.07501297  0.83714481  0.15576485  1
  Na  Na4  1  0.32502928  0.41286140  0.40556138  1
  Na  Na5  1  0.67498487  0.08714698  0.90581794  1
  Na  Na6  1  0.92496816  0.16285895  0.15559824  1
  Na  Na7  1  0.32502920  0.91286203  0.90556301  1
  Na  Na8  1  0.67498416  0.58714686  0.40581790  1
  Na  Na9  1  0.92496758  0.66285863  0.65559679  1
  Na  Na10  1  0.07501324  0.33714439  0.65576640  1
  Na  Na11  1  0.82502938  0.91286175  0.40556089  1
  Na  Na12  1  0.17498496  0.08714675  0.40581673  1
  Na  Na13  1  0.17498387  0.58714698  0.90581791  1
  Na  Na14  1  0.42496688  0.66285883  0.15560104  1
  Na  Na15  1  0.57501324  0.33714505  0.15576624  1
  I  I16  1  0.09102004  0.17273790  0.90504732  1
  I  I17  1  0.90898894  0.82726967  0.90486443  1
  I  I18  1  0.15898316  0.42272490  0.15495801  1
  I  I19  1  0.40898924  0.82726907  0.40486524  1
  I  I20  1  0.65898304  0.42272446  0.65495960  1
  I  I21  1  0.34101280  0.07725571  0.15494338  1
  I  I22  1  0.59102010  0.17273764  0.40504831  1
  I  I23  1  0.65898333  0.92272490  0.15495729  1
  I  I24  1  0.34101368  0.57725617  0.65494202  1
  I  I25  1  0.59102050  0.67273749  0.90504568  1
  I  I26  1  0.40898876  0.32726970  0.90486474  1
  I  I27  1  0.15898304  0.92272449  0.65495768  1
  I  I28  1  0.84101348  0.07725588  0.65494384  1
  I  I29  1  0.84101302  0.57725611  0.15494191  1
  I  I30  1  0.09102012  0.67273756  0.40504633  1
  I  I31  1  0.90898891  0.32726949  0.40486498  1
