# generated using pymatgen
data_KBr
_symmetry_space_group_name_H-M   'P 1'
_cell_length_a   9.88732479
_cell_length_b   5.72633507
_cell_length_c   5.70112961
_cell_angle_alpha   89.99911353
_cell_angle_beta   125.18020369
_cell_angle_gamma   90.00056696
_symmetry_Int_Tables_number   1
_chemical_formula_structural   KBr
_chemical_formula_sum   'K4 Br4'
_cell_volume   263.82828685
_cell_formula_units_Z   4
loop_
 _symmetry_equiv_pos_site_id
 _symmetry_equiv_pos_as_xyz
  1  'x, y, z'
loop_
 _atom_site_type_symbol
 _atom_site_label
 _atom_site_symmetry_multiplicity
 _atom_site_fract_x
 _atom_site_fract_y
 _atom_site_fract_z
 _atom_site_occupancy
  K  K0  1  0.65973839  0.74968712  0.13026878  1
  K  K1  1  0.15973835  0.24968698  0.13026871  1
  K  K2  1  0.65973837  0.25031296  0.63026871  1
  K  K3  1  0.15973838  0.75031267  0.63026866  1
  Br  Br4  1  0.90921111  0.75021639  0.87946606  1
  Br  Br5  1  0.40921106  0.25021635  0.87946601  1
  Br  Br6  1  0.90921105  0.24978377  0.37946601  1
  Br  Br7  1  0.40921109  0.74978377  0.37946606  1
