# generated using pymatgen
data_LiBr
_symmetry_space_group_name_H-M   'P 1'
_cell_length_a   11.45062830
_cell_length_b   11.45062726
_cell_length_c   7.30642606
_cell_angle_alpha   89.99965827
_cell_angle_beta   90.00031347
_cell_angle_gamma   120.00237207
_symmetry_Int_Tables_number   1
_chemical_formula_structural   LiBr
_chemical_formula_sum   'Li18 Br18'
_cell_volume   829.62883670
_cell_formula_units_Z   18
loop_
 _symmetry_equiv_pos_site_id
 _symmetry_equiv_pos_as_xyz
  1  'x, y, z'
loop_
 _atom_site_type_symbol
 _atom_site_label
 _atom_site_symmetry_multiplicity
 _atom_site_fract_x
 _atom_site_fract_y
 _atom_site_fract_z
 _atom_site_occupancy
  Li  Li0  1  0.79216930  0.24904923  0.71131143  1
  Li  Li1  1  0.79216909  0.54312065  0.21131238  1
  Li  Li2  1  0.08436602  0.87458169  0.87814319  1
  Li  Li3  1  0.79022587  0.91563764  0.87814739  1
  Li  Li4  1  0.41768536  0.87647608  0.04484136  1
  Li  Li5  1  0.75095175  0.54312398  0.71131552  1
  Li  Li6  1  0.79021485  0.87458061  0.37814046  1
  Li  Li7  1  0.08436298  0.20977203  0.37814552  1
  Li  Li8  1  0.45688050  0.20783140  0.71131229  1
  Li  Li9  1  0.45687563  0.24904851  0.21131585  1
  Li  Li10  1  0.12541862  0.91563371  0.37814342  1
  Li  Li11  1  0.12541794  0.20978414  0.87813962  1
  Li  Li12  1  0.12352313  0.54120598  0.04484230  1
  Li  Li13  1  0.12352472  0.58231505  0.54484103  1
  Li  Li14  1  0.75095128  0.20783306  0.21131046  1
  Li  Li15  1  0.41768960  0.54120800  0.54483738  1
  Li  Li16  1  0.45879140  0.58231004  0.04483729  1
  Li  Li17  1  0.45879356  0.87647663  0.54484201  1
  Br  Br18  1  0.24958075  0.44915117  0.26481124  1
  Br  Br19  1  0.24957921  0.80042932  0.76481255  1
  Br  Br20  1  0.88416538  0.41710666  0.43142973  1
  Br  Br21  1  0.53293447  0.11583025  0.43143014  1
  Br  Br22  1  0.21750310  0.13373482  0.59815619  1
  Br  Br23  1  0.55085040  0.80043353  0.26480958  1
  Br  Br24  1  0.53294051  0.41710778  0.93143270  1
  Br  Br25  1  0.88416974  0.46706539  0.93143065  1
  Br  Br26  1  0.19957112  0.75042091  0.26481234  1
  Br  Br27  1  0.19956628  0.44914939  0.76481013  1
  Br  Br28  1  0.58289401  0.11583505  0.93142923  1
  Br  Br29  1  0.58289239  0.46705962  0.43143266  1
  Br  Br30  1  0.86627080  0.08377004  0.59815904  1
  Br  Br31  1  0.86626502  0.78249727  0.09815578  1
  Br  Br32  1  0.55084827  0.75041891  0.76481072  1
  Br  Br33  1  0.21749532  0.08376777  0.09815520  1
  Br  Br34  1  0.91623232  0.78250432  0.59815486  1
  Br  Br35  1  0.91622934  0.13372938  0.09815902  1
