# generated using pymatgen
data_NaI
_symmetry_space_group_name_H-M   'P 1'
_cell_length_a   4.66998548
_cell_length_b   9.18740258
_cell_length_c   8.00695408
_cell_angle_alpha   89.99972917
_cell_angle_beta   125.65679604
_cell_angle_gamma   89.99858401
_symmetry_Int_Tables_number   1
_chemical_formula_structural   NaI
_chemical_formula_sum   'Na4 I4'
_cell_volume   279.13316962
_cell_formula_units_Z   4
loop_
 _symmetry_equiv_pos_site_id
 _symmetry_equiv_pos_as_xyz
  1  'x, y, z'
loop_
 _atom_site_type_symbol
 _atom_site_label
 _atom_site_symmetry_multiplicity
 _atom_site_fract_x
 _atom_site_fract_y
 _atom_site_fract_z
 _atom_site_occupancy
  Na  Na0  1  -0.00025306  0.37462506  0.24998462  1
  Na  Na1  1  0.00024737  0.87462969  0.25003814  1
  Na  Na2  1  0.00024927  0.62537516  0.75001226  1
  Na  Na3  1  -0.00025117  0.12537011  0.74995869  1
  I  I4  1  0.50066580  0.37561651  0.75017292  1
  I  I5  1  0.49935960  0.87561553  0.74984099  1
  I  I6  1  0.49933803  0.62438345  0.24983028  1
  I  I7  1  0.50064416  0.12438450  0.25016212  1
