# generated using pymatgen
data_NaI
_symmetry_space_group_name_H-M   'P 1'
_cell_length_a   6.53450261
_cell_length_b   6.53450599
_cell_length_c   13.07036367
_cell_angle_alpha   90.00000360
_cell_angle_beta   90.00000427
_cell_angle_gamma   89.99998839
_symmetry_Int_Tables_number   1
_chemical_formula_structural   NaI
_chemical_formula_sum   'Na8 I8'
_cell_volume   558.10121421
_cell_formula_units_Z   8
loop_
 _symmetry_equiv_pos_site_id
 _symmetry_equiv_pos_as_xyz
  1  'x, y, z'
loop_
 _atom_site_type_symbol
 _atom_site_label
 _atom_site_symmetry_multiplicity
 _atom_site_fract_x
 _atom_site_fract_y
 _atom_site_fract_z
 _atom_site_occupancy
  Na  Na0  1  0.74948696  0.74944275  0.12520764  1
  Na  Na1  1  0.75055678  0.75051318  0.62520784  1
  Na  Na2  1  0.24948696  0.75055702  0.37479141  1
  Na  Na3  1  0.24944302  0.24948710  0.62520761  1
  Na  Na4  1  0.75051320  0.24944280  0.37479308  1
  Na  Na5  1  0.25051327  0.25055696  0.12520789  1
  Na  Na6  1  0.25055685  0.74948720  0.87479143  1
  Na  Na7  1  0.74944309  0.25051321  0.87479313  1
  I  I8  1  0.25063999  0.74975524  0.62498788  1
  I  I9  1  0.75024492  0.24935946  0.12498721  1
  I  I10  1  0.75064001  0.75024495  0.87501198  1
  I  I11  1  0.24975525  0.75064026  0.12498784  1
  I  I12  1  0.24935984  0.24975523  0.87501297  1
  I  I13  1  0.74935980  0.25024493  0.62498716  1
  I  I14  1  0.25024488  0.25064025  0.37501197  1
  I  I15  1  0.74975518  0.74935948  0.37501296  1
