# generated using pymatgen
data_LiBr
_symmetry_space_group_name_H-M   'P 1'
_cell_length_a   7.78076132
_cell_length_b   7.78076459
_cell_length_c   11.02940075
_cell_angle_alpha   90.00045843
_cell_angle_beta   90.00022078
_cell_angle_gamma   89.99996124
_symmetry_Int_Tables_number   1
_chemical_formula_structural   LiBr
_chemical_formula_sum   'Li16 Br16'
_cell_volume   667.72292353
_cell_formula_units_Z   16
loop_
 _symmetry_equiv_pos_site_id
 _symmetry_equiv_pos_as_xyz
  1  'x, y, z'
loop_
 _atom_site_type_symbol
 _atom_site_label
 _atom_site_symmetry_multiplicity
 _atom_site_fract_x
 _atom_site_fract_y
 _atom_site_fract_z
 _atom_site_occupancy
  Li  Li0  1  0.50090261  0.74994049  0.37401637  1
  Li  Li1  1  0.74993816  0.49910261  0.62598435  1
  Li  Li2  1  0.50089993  0.25005831  0.87401654  1
  Li  Li3  1  0.24994162  -0.00089979  0.12598344  1
  Li  Li4  1  0.00090035  0.75005943  0.37401718  1
  Li  Li5  1  0.75005830  0.00089928  0.12598365  1
  Li  Li6  1  0.00090024  0.24994114  0.87401476  1
  Li  Li7  1  -0.00089951  0.75005829  0.87401654  1
  Li  Li8  1  0.75005901  -0.00089800  0.62598395  1
  Li  Li9  1  -0.00089840  0.24993928  0.37401486  1
  Li  Li10  1  0.24994041  0.00090102  0.62598326  1
  Li  Li11  1  0.49910007  0.25005943  0.37401794  1
  Li  Li12  1  0.25005866  0.50089969  0.62598243  1
  Li  Li13  1  0.25005887  0.49910283  0.12598384  1
  Li  Li14  1  0.49909835  0.74994089  0.87401681  1
  Li  Li15  1  0.74994148  0.50089859  0.12598398  1
  Br  Br16  1  0.50039751  0.75009122  0.12483383  1
  Br  Br17  1  0.75009180  0.49960211  0.87516578  1
  Br  Br18  1  0.50039714  0.24990858  0.62483441  1
  Br  Br19  1  0.25009266  -0.00039785  0.37516591  1
  Br  Br20  1  0.00039753  0.74990813  0.12483468  1
  Br  Br21  1  0.74990819  0.00039680  0.37516586  1
  Br  Br22  1  0.00039717  0.25009162  0.62483328  1
  Br  Br23  1  -0.00039791  0.74990845  0.62483404  1
  Br  Br24  1  0.74990861  -0.00039793  0.87516575  1
  Br  Br25  1  -0.00039705  0.25009125  0.12483451  1
  Br  Br26  1  0.25009142  0.00039723  0.87516565  1
  Br  Br27  1  0.49960227  0.24990770  0.12483438  1
  Br  Br28  1  0.24990759  0.50039667  0.87516542  1
  Br  Br29  1  0.24990894  0.49960269  0.37516598  1
  Br  Br30  1  0.49960240  0.75009228  0.62483454  1
  Br  Br31  1  0.75009160  0.50039758  0.37516606  1
