# generated using pymatgen
data_LiI
_symmetry_space_group_name_H-M   'P 1'
_cell_length_a   6.01987567
_cell_length_b   6.01987559
_cell_length_c   11.99319454
_cell_angle_alpha   90.00000232
_cell_angle_beta   90.00000533
_cell_angle_gamma   89.99999872
_symmetry_Int_Tables_number   1
_chemical_formula_structural   LiI
_chemical_formula_sum   'Li8 I8'
_cell_volume   434.62020921
_cell_formula_units_Z   8
loop_
 _symmetry_equiv_pos_site_id
 _symmetry_equiv_pos_as_xyz
  1  'x, y, z'
loop_
 _atom_site_type_symbol
 _atom_site_label
 _atom_site_symmetry_multiplicity
 _atom_site_fract_x
 _atom_site_fract_y
 _atom_site_fract_z
 _atom_site_occupancy
  Li  Li0  1  0.25297694  0.25174282  0.37504581  1
  Li  Li1  1  0.24825728  0.24702507  0.87504579  1
  Li  Li2  1  0.75297549  0.24825750  0.12495482  1
  Li  Li3  1  0.75174206  0.75297538  0.87504546  1
  Li  Li4  1  0.24702437  0.75174253  0.12495408  1
  Li  Li5  1  0.74702483  0.74825802  0.37504530  1
  Li  Li6  1  0.74825766  0.25297409  0.62495501  1
  Li  Li7  1  0.25174250  0.74702400  0.62495386  1
  I  I8  1  0.74999915  0.75050819  0.62493490  1
  I  I9  1  0.74949156  0.75000065  0.12493488  1
  I  I10  1  0.24999897  0.74949187  0.87506502  1
  I  I11  1  0.25050809  0.24999954  0.12493486  1
  I  I12  1  0.75000052  0.25050836  0.87506511  1
  I  I13  1  0.25000059  0.24949172  0.62493497  1
  I  I14  1  0.24949168  0.74999953  0.37506503  1
  I  I15  1  0.75050831  0.25000073  0.37506511  1
