# generated using pymatgen
data_KI
_symmetry_space_group_name_H-M   'P 1'
_cell_length_a   9.74676426
_cell_length_b   4.51071030
_cell_length_c   8.48588701
_cell_angle_alpha   90.00000205
_cell_angle_beta   89.99998428
_cell_angle_gamma   89.99999707
_symmetry_Int_Tables_number   1
_chemical_formula_structural   KI
_chemical_formula_sum   'K4 I4'
_cell_volume   373.08057872
_cell_formula_units_Z   4
loop_
 _symmetry_equiv_pos_site_id
 _symmetry_equiv_pos_as_xyz
  1  'x, y, z'
loop_
 _atom_site_type_symbol
 _atom_site_label
 _atom_site_symmetry_multiplicity
 _atom_site_fract_x
 _atom_site_fract_y
 _atom_site_fract_z
 _atom_site_occupancy
  K  K0  1  0.62418428  0.00099669  0.41940949  1
  K  K1  1  0.12418458  -0.00099685  0.41940992  1
  K  K2  1  0.37581580  -0.00099612  0.91940970  1
  K  K3  1  0.87581571  0.00099630  0.91940977  1
  I  I4  1  0.12569624  0.49972537  0.08734292  1
  I  I5  1  0.62569621  0.50027458  0.08734279  1
  I  I6  1  0.87430354  0.50027464  0.58734279  1
  I  I7  1  0.37430363  0.49972539  0.58734283  1
