# generated using pymatgen
data_KI
_symmetry_space_group_name_H-M   'P 1'
_cell_length_a   7.18978472
_cell_length_b   10.10020415
_cell_length_c   8.81252090
_cell_angle_alpha   89.99985467
_cell_angle_beta   144.55604896
_cell_angle_gamma   89.99975681
_symmetry_Int_Tables_number   1
_chemical_formula_structural   KI
_chemical_formula_sum   'K4 I4'
_cell_volume   371.11115535
_cell_formula_units_Z   4
loop_
 _symmetry_equiv_pos_site_id
 _symmetry_equiv_pos_as_xyz
  1  'x, y, z'
loop_
 _atom_site_type_symbol
 _atom_site_label
 _atom_site_symmetry_multiplicity
 _atom_site_fract_x
 _atom_site_fract_y
 _atom_site_fract_z
 _atom_site_occupancy
  K  K0  1  0.00174520  0.37350690  0.25100366  1
  K  K1  1  -0.00174971  0.87350603  0.24899247  1
  K  K2  1  -0.00174511  0.62649296  0.74899634  1
  K  K3  1  0.00174969  0.12649381  0.75100756  1
  I  I4  1  0.49975939  0.37602476  0.24929494  1
  I  I5  1  0.50023643  0.87602356  0.25070118  1
  I  I6  1  0.50024040  0.62397541  0.75070490  1
  I  I7  1  0.49976370  0.12397656  0.74929895  1
