# generated using pymatgen
data_LiI
_symmetry_space_group_name_H-M   'P 1'
_cell_length_a   8.07698778
_cell_length_b   8.97517845
_cell_length_c   8.31433155
_cell_angle_alpha   90.00001100
_cell_angle_beta   89.99999933
_cell_angle_gamma   90.01472184
_symmetry_Int_Tables_number   1
_chemical_formula_structural   LiI
_chemical_formula_sum   'Li8 I8'
_cell_volume   602.72588393
_cell_formula_units_Z   8
loop_
 _symmetry_equiv_pos_site_id
 _symmetry_equiv_pos_as_xyz
  1  'x, y, z'
loop_
 _atom_site_type_symbol
 _atom_site_label
 _atom_site_symmetry_multiplicity
 _atom_site_fract_x
 _atom_site_fract_y
 _atom_site_fract_z
 _atom_site_occupancy
  Li  Li0  1  0.25046189  0.37418956  0.19060961  1
  Li  Li1  1  0.25046720  0.62581039  0.69060984  1
  Li  Li2  1  0.75046335  0.12580957  0.80939010  1
  Li  Li3  1  0.24951718  0.12581141  0.69060708  1
  Li  Li4  1  0.74951508  0.37419182  0.30939026  1
  Li  Li5  1  0.24951592  0.87418689  0.19060592  1
  Li  Li6  1  0.75046274  0.87419112  0.30939121  1
  Li  Li7  1  0.74952028  0.62580761  0.80939051  1
  I  I8  1  0.25030900  0.12408959  0.36850188  1
  I  I9  1  0.25030457  0.87591079  0.86850244  1
  I  I10  1  0.75030337  0.37590832  0.63149932  1
  I  I11  1  0.24971053  0.37591182  0.86850055  1
  I  I12  1  0.74971613  0.12409131  0.13150273  1
  I  I13  1  0.24971415  0.62408763  0.36849923  1
  I  I14  1  0.75030646  0.62409193  0.13149854  1
  I  I15  1  0.74971214  0.87591024  0.63150078  1
