# generated using pymatgen
data_LiBr
_symmetry_space_group_name_H-M   'P 1'
_cell_length_a   10.02420396
_cell_length_b   10.02420153
_cell_length_c   8.48122346
_cell_angle_alpha   89.99999708
_cell_angle_beta   90.00000456
_cell_angle_gamma   90.00010807
_symmetry_Int_Tables_number   1
_chemical_formula_structural   LiBr
_chemical_formula_sum   'Li16 Br16'
_cell_volume   852.23269186
_cell_formula_units_Z   16
loop_
 _symmetry_equiv_pos_site_id
 _symmetry_equiv_pos_as_xyz
  1  'x, y, z'
loop_
 _atom_site_type_symbol
 _atom_site_label
 _atom_site_symmetry_multiplicity
 _atom_site_fract_x
 _atom_site_fract_y
 _atom_site_fract_z
 _atom_site_occupancy
  Li  Li0  1  0.66987167  0.99882709  0.82234838  1
  Li  Li1  1  0.49882748  0.66987212  0.07234853  1
  Li  Li2  1  0.33012823  0.99882679  0.32234802  1
  Li  Li3  1  0.33012734  0.00117365  0.82234841  1
  Li  Li4  1  0.50117310  0.33012895  0.07234787  1
  Li  Li5  1  0.00117312  0.16987190  0.07234898  1
  Li  Li6  1  0.99882732  0.83012694  0.07234873  1
  Li  Li7  1  0.50117431  0.66987356  0.57234832  1
  Li  Li8  1  0.49882522  0.33012757  0.57234843  1
  Li  Li9  1  0.83012630  0.50117351  0.32234842  1
  Li  Li10  1  0.00117191  0.83012754  0.57234805  1
  Li  Li11  1  0.16987236  0.49882609  0.32234810  1
  Li  Li12  1  0.99882784  0.16987138  0.57234767  1
  Li  Li13  1  0.83012876  0.49882634  0.82234726  1
  Li  Li14  1  0.16987218  0.50117176  0.82234738  1
  Li  Li15  1  0.66987308  0.00117467  0.32234719  1
  Br  Br16  1  0.49882915  0.80801835  0.82261657  1
  Br  Br17  1  0.30801741  0.49882999  0.07261532  1
  Br  Br18  1  0.50117094  0.80801834  0.32261561  1
  Br  Br19  1  0.50117000  0.19198252  0.82261623  1
  Br  Br20  1  0.69198300  0.50117077  0.07261465  1
  Br  Br21  1  0.19198223  -0.00116995  0.07261630  1
  Br  Br22  1  0.80801821  0.00116933  0.07261541  1
  Br  Br23  1  0.69198159  0.49882949  0.57261628  1
  Br  Br24  1  0.30801786  0.50117120  0.57261575  1
  Br  Br25  1  0.00116966  0.69198149  0.32261621  1
  Br  Br26  1  0.19198264  0.00116937  0.57261531  1
  Br  Br27  1  -0.00117100  0.30801795  0.32261623  1
  Br  Br28  1  0.80801728  -0.00116985  0.57261585  1
  Br  Br29  1  0.00116966  0.30801629  0.82261554  1
  Br  Br30  1  -0.00116901  0.69198175  0.82261552  1
  Br  Br31  1  0.49883015  0.19198311  0.32261523  1
