# generated using pymatgen
data_LiBr
_symmetry_space_group_name_H-M   'P 1'
_cell_length_a   11.06614926
_cell_length_b   11.06614895
_cell_length_c   8.28575037
_cell_angle_alpha   90.00078869
_cell_angle_beta   89.99921527
_cell_angle_gamma   120.00509307
_symmetry_Int_Tables_number   1
_chemical_formula_structural   LiBr
_chemical_formula_sum   'Li18 Br18'
_cell_volume   878.68501662
_cell_formula_units_Z   18
loop_
 _symmetry_equiv_pos_site_id
 _symmetry_equiv_pos_as_xyz
  1  'x, y, z'
loop_
 _atom_site_type_symbol
 _atom_site_label
 _atom_site_symmetry_multiplicity
 _atom_site_fract_x
 _atom_site_fract_y
 _atom_site_fract_z
 _atom_site_occupancy
  Li  Li0  1  0.74876543  0.74478830  0.17943909  1
  Li  Li1  1  0.74879103  0.00400521  0.67943514  1
  Li  Li2  1  0.58854205  0.91789965  0.34610689  1
  Li  Li3  1  0.32935040  0.41144185  0.34609953  1
  Li  Li4  1  0.92189052  0.33731617  0.51276621  1
  Li  Li5  1  0.25522419  0.00398362  0.17943180  1
  Li  Li6  1  0.32932647  0.91787610  0.84609972  1
  Li  Li7  1  0.58855825  0.67065022  0.84609875  1
  Li  Li8  1  -0.00400574  0.25121038  0.17943415  1
  Li  Li9  1  -0.00398328  0.74477524  0.67943255  1
  Li  Li10  1  0.08210034  0.41145722  0.84610600  1
  Li  Li11  1  0.08212401  0.67067299  0.34610082  1
  Li  Li12  1  0.66265963  0.58454351  0.51276667  1
  Li  Li13  1  0.66268496  0.07811282  0.01276728  1
  Li  Li14  1  0.25520978  0.25123350  0.67943977  1
  Li  Li15  1  0.92187555  0.58456600  0.01277332  1
  Li  Li16  1  0.41543277  0.07812181  0.51277178  1
  Li  Li17  1  0.41545692  0.33734019  0.01276699  1
  Br  Br18  1  0.09473905  0.51666666  0.12253264  1
  Br  Br19  1  0.09477485  0.57809592  0.62253325  1
  Br  Br20  1  0.81666680  0.57192740  0.28919994  1
  Br  Br21  1  0.75524631  0.18333225  0.28919898  1
  Br  Br22  1  0.15000160  0.91142089  0.45586543  1
  Br  Br23  1  0.48333492  0.57808762  0.12253195  1
  Br  Br24  1  0.75523730  0.57189213  0.78920046  1
  Br  Br25  1  0.81666859  0.24475414  0.78919870  1
  Br  Br26  1  0.42190454  0.90522653  0.12253362  1
  Br  Br27  1  0.42191243  0.51666525  0.62253236  1
  Br  Br28  1  0.42807218  0.18333271  0.78919917  1
  Br  Br29  1  0.42810809  0.24476261  0.28919984  1
  Br  Br30  1  0.08857099  0.23855868  0.45586679  1
  Br  Br31  1  0.08857881  0.84999816  0.95586561  1
  Br  Br32  1  0.48333392  0.90526109  0.62253303  1
  Br  Br33  1  0.15000039  0.23859444  0.95586638  1
  Br  Br34  1  0.76140538  0.84999941  0.45586606  1
  Br  Br35  1  0.76144051  0.91142935  0.95586792  1
