# generated using pymatgen
data_LiI
_symmetry_space_group_name_H-M   'P 1'
_cell_length_a   6.02576235
_cell_length_b   11.98840803
_cell_length_c   6.01488235
_cell_angle_alpha   90.00060964
_cell_angle_beta   90.00096530
_cell_angle_gamma   90.00031522
_symmetry_Int_Tables_number   1
_chemical_formula_structural   LiI
_chemical_formula_sum   'Li8 I8'
_cell_volume   434.51087642
_cell_formula_units_Z   8
loop_
 _symmetry_equiv_pos_site_id
 _symmetry_equiv_pos_as_xyz
  1  'x, y, z'
loop_
 _atom_site_type_symbol
 _atom_site_label
 _atom_site_symmetry_multiplicity
 _atom_site_fract_x
 _atom_site_fract_y
 _atom_site_fract_z
 _atom_site_occupancy
  Li  Li0  1  0.25284184  0.12395921  -0.00050786  1
  Li  Li1  1  0.25284378  0.37604217  0.49948385  1
  Li  Li2  1  0.75285378  0.37604262  0.00050682  1
  Li  Li3  1  0.24714375  0.87604290  0.49948815  1
  Li  Li4  1  0.74715824  0.62395465  0.50051201  1
  Li  Li5  1  0.24716019  0.62395860  -0.00050688  1
  Li  Li6  1  0.75283492  0.12395485  0.50050631  1
  Li  Li7  1  0.74715057  0.87604158  0.00051182  1
  I  I8  1  0.74914791  0.62497736  -0.00005524  1
  I  I9  1  0.74916416  0.87502316  0.49994642  1
  I  I10  1  0.24916028  0.87502397  0.00006345  1
  I  I11  1  0.75084311  0.37502309  0.49993869  1
  I  I12  1  0.25085703  0.12497732  0.50005543  1
  I  I13  1  0.75085151  0.12497730  -0.00006430  1
  I  I14  1  0.24915096  0.62497735  0.50006435  1
  I  I15  1  0.25083797  0.37502389  0.00005698  1
