# generated using pymatgen
data_LiBr
_symmetry_space_group_name_H-M   'P 1'
_cell_length_a   10.30126678
_cell_length_b   10.30126358
_cell_length_c   12.48108503
_cell_angle_alpha   90.00559584
_cell_angle_beta   89.99439141
_cell_angle_gamma   120.00981272
_symmetry_Int_Tables_number   1
_chemical_formula_structural   LiBr
_chemical_formula_sum   'Li18 Br18'
_cell_volume   1146.88838331
_cell_formula_units_Z   18
loop_
 _symmetry_equiv_pos_site_id
 _symmetry_equiv_pos_as_xyz
  1  'x, y, z'
loop_
 _atom_site_type_symbol
 _atom_site_label
 _atom_site_symmetry_multiplicity
 _atom_site_fract_x
 _atom_site_fract_y
 _atom_site_fract_z
 _atom_site_occupancy
  Li  Li0  1  0.91544314  0.33232165  0.73205056  1
  Li  Li1  1  0.91543425  0.58311622  0.23204605  1
  Li  Li2  1  0.00093563  0.75118622  0.89873634  1
  Li  Li3  1  0.75025213  0.99906153  0.89873700  1
  Li  Li4  1  0.33425578  0.91637484  0.06537407  1
  Li  Li5  1  0.66768260  0.58311657  0.73205078  1
  Li  Li6  1  0.75025420  0.75119210  0.39873306  1
  Li  Li7  1  0.00093802  0.24974696  0.39873710  1
  Li  Li8  1  0.41688408  0.08456718  0.73204532  1
  Li  Li9  1  0.41688309  0.33231674  0.23205086  1
  Li  Li10  1  0.24881374  0.99906400  0.39873621  1
  Li  Li11  1  0.24880742  0.24974570  0.89873282  1
  Li  Li12  1  0.08362790  0.41788111  0.06537586  1
  Li  Li13  1  0.08362586  0.66574397  0.56537439  1
  Li  Li14  1  0.66767902  0.08455693  0.23204987  1
  Li  Li15  1  0.33425227  0.41788017  0.56537902  1
  Li  Li16  1  0.58212023  0.66574717  0.06537879  1
  Li  Li17  1  0.58211916  0.91637234  0.56537580  1
  Br  Br18  1  0.75170469  0.75080386  0.89919389  1
  Br  Br19  1  0.75166256  0.00088022  0.39917799  1
  Br  Br20  1  0.58253918  -0.08501715  0.06585606  1
  Br  Br21  1  0.33243086  0.41742741  0.06587116  1
  Br  Br22  1  -0.08411679  0.33429112  0.23254268  1
  Br  Br23  1  0.24922600  0.00091228  0.89920613  1
  Br  Br24  1  0.33246559  -0.08497190  0.56583995  1
  Br  Br25  1  0.58257254  0.66756901  0.56587093  1
  Br  Br26  1  -0.00088012  0.24833817  0.89917849  1
  Br  Br27  1  -0.00091167  0.75077345  0.39920640  1
  Br  Br28  1  0.08501650  0.41746079  0.56585608  1
  Br  Br29  1  0.08497201  0.66753470  0.06584001  1
  Br  Br30  1  0.66573964  0.58161616  0.23251138  1
  Br  Br31  1  0.66570898  0.08411670  0.73254260  1
  Br  Br32  1  0.24919660  0.24829491  0.39919363  1
  Br  Br33  1  -0.08414712  0.58157167  0.73252712  1
  Br  Br34  1  0.41842908  0.08414754  0.23252698  1
  Br  Br35  1  0.41838296  0.33425966  0.73251204  1
