# generated using pymatgen
data_LiBr
_symmetry_space_group_name_H-M   'P 1'
_cell_length_a   11.53418874
_cell_length_b   11.53419586
_cell_length_c   7.92259482
_cell_angle_alpha   90.00586541
_cell_angle_beta   89.99426703
_cell_angle_gamma   120.00243521
_symmetry_Int_Tables_number   1
_chemical_formula_structural   LiBr
_chemical_formula_sum   'Li18 Br18'
_cell_volume   912.77091312
_cell_formula_units_Z   18
loop_
 _symmetry_equiv_pos_site_id
 _symmetry_equiv_pos_as_xyz
  1  'x, y, z'
loop_
 _atom_site_type_symbol
 _atom_site_label
 _atom_site_symmetry_multiplicity
 _atom_site_fract_x
 _atom_site_fract_y
 _atom_site_fract_z
 _atom_site_occupancy
  Li  Li0  1  0.07309445  0.53687771  0.95089051  1
  Li  Li1  1  0.07314831  0.53628666  0.45094392  1
  Li  Li2  1  0.79646962  0.59356470  0.11755643  1
  Li  Li3  1  0.79711872  0.20357497  0.11766432  1
  Li  Li4  1  0.12974521  0.86957900  0.28427476  1
  Li  Li5  1  0.46307082  0.53620835  0.95098157  1
  Li  Li6  1  0.79705573  0.59353117  0.61761066  1
  Li  Li7  1  0.79642309  0.20288065  0.61766368  1
  Li  Li8  1  0.46371270  -0.07315245  0.95094265  1
  Li  Li9  1  0.46379054  0.53693111  0.45098091  1
  Li  Li10  1  0.40643296  0.20353031  0.61755561  1
  Li  Li11  1  0.40646828  0.20294285  0.11761069  1
  Li  Li12  1  0.13035783  0.26017117  0.28425026  1
  Li  Li13  1  0.13041938  0.87025402  0.78427474  1
  Li  Li14  1  0.46312186  -0.07309341  0.45089103  1
  Li  Li15  1  0.12979271  0.26021089  0.78420127  1
  Li  Li16  1  0.73979112  0.87020827  0.28420269  1
  Li  Li17  1  0.73983136  0.86964362  0.78425079  1
  Br  Br18  1  0.87990852  0.75920310  0.85710936  1
  Br  Br19  1  0.87991725  0.12067442  0.35721905  1
  Br  Br20  1  0.57415216  0.78677446  0.02377341  1
  Br  Br21  1  0.21262107  0.42581913  0.02381353  1
  Br  Br22  1  0.90749170  0.45403186  0.19050183  1
  Br  Br23  1  0.24082798  0.12071957  0.85714274  1
  Br  Br24  1  0.21265591  0.78679163  0.52386362  1
  Br  Br25  1  0.57418270  0.78738159  0.52381330  1
  Br  Br26  1  0.87932636  0.12008444  0.85721865  1
  Br  Br27  1  0.87928043  0.75917112  0.35714448  1
  Br  Br28  1  0.21322559  0.42585070  0.52377345  1
  Br  Br29  1  0.21320879  0.78734421  0.02386359  1
  Br  Br30  1  0.54601067  0.45343374  0.19055358  1
  Br  Br31  1  0.54596734  0.09250910  0.69050322  1
  Br  Br32  1  0.24079594  0.12009126  0.35710728  1
  Br  Br33  1  0.90746502  0.45344689  0.69045684  1
  Br  Br34  1  0.54655281  0.09253303  0.19045667  1
  Br  Br35  1  0.54656505  0.45399019  0.69055160  1
