# generated using pymatgen
data_NaI
_symmetry_space_group_name_H-M   'P 1'
_cell_length_a   7.90680165
_cell_length_b   4.55069358
_cell_length_c   7.74814008
_cell_angle_alpha   90.00011174
_cell_angle_beta   90.00005322
_cell_angle_gamma   90.00042124
_symmetry_Int_Tables_number   1
_chemical_formula_structural   NaI
_chemical_formula_sum   'Na4 I4'
_cell_volume   278.78917130
_cell_formula_units_Z   4
loop_
 _symmetry_equiv_pos_site_id
 _symmetry_equiv_pos_as_xyz
  1  'x, y, z'
loop_
 _atom_site_type_symbol
 _atom_site_label
 _atom_site_symmetry_multiplicity
 _atom_site_fract_x
 _atom_site_fract_y
 _atom_site_fract_z
 _atom_site_occupancy
  Na  Na0  1  0.25076039  0.25177789  0.67410994  1
  Na  Na1  1  0.75076166  -0.25176743  0.67410486  1
  Na  Na2  1  0.74924396  -0.25174754  0.17410521  1
  Na  Na3  1  0.24924511  0.25173731  0.17411078  1
  I  I4  1  0.58252251  0.24840345  0.92363908  1
  I  I5  1  0.08252249  0.75158800  0.92364074  1
  I  I6  1  0.41747177  0.75160093  0.42364056  1
  I  I7  1  0.91747210  0.24840738  0.42363843  1
