# generated using pymatgen
data_NaI
_symmetry_space_group_name_H-M   'P 1'
_cell_length_a   9.21989575
_cell_length_b   6.52645758
_cell_length_c   4.62425059
_cell_angle_alpha   89.99965167
_cell_angle_beta   89.99871572
_cell_angle_gamma   90.00205766
_symmetry_Int_Tables_number   1
_chemical_formula_structural   NaI
_chemical_formula_sum   'Na4 I4'
_cell_volume   278.25622562
_cell_formula_units_Z   4
loop_
 _symmetry_equiv_pos_site_id
 _symmetry_equiv_pos_as_xyz
  1  'x, y, z'
loop_
 _atom_site_type_symbol
 _atom_site_label
 _atom_site_symmetry_multiplicity
 _atom_site_fract_x
 _atom_site_fract_y
 _atom_site_fract_z
 _atom_site_occupancy
  Na  Na0  1  0.62681999  0.25104365  0.46419391  1
  Na  Na1  1  0.12681865  0.24895657  0.46419736  1
  Na  Na2  1  0.37317837  0.74895596  0.96419810  1
  Na  Na3  1  0.87317933  0.75104292  0.96419183  1
  I  I4  1  0.62374662  0.74984978  0.46316980  1
  I  I5  1  0.12374641  0.75015103  0.46317006  1
  I  I6  1  0.37625518  0.25015066  -0.03683303  1
  I  I7  1  0.87625545  0.24984943  -0.03683359  1
