# generated using pymatgen
data_LiI
_symmetry_space_group_name_H-M   'P 1'
_cell_length_a   7.90273226
_cell_length_b   7.90272358
_cell_length_c   7.40371048
_cell_angle_alpha   90.00000073
_cell_angle_beta   89.99999158
_cell_angle_gamma   120.00303469
_symmetry_Int_Tables_number   1
_chemical_formula_structural   LiI
_chemical_formula_sum   'Li6 I6'
_cell_volume   400.42468078
_cell_formula_units_Z   6
loop_
 _symmetry_equiv_pos_site_id
 _symmetry_equiv_pos_as_xyz
  1  'x, y, z'
loop_
 _atom_site_type_symbol
 _atom_site_label
 _atom_site_symmetry_multiplicity
 _atom_site_fract_x
 _atom_site_fract_y
 _atom_site_fract_z
 _atom_site_occupancy
  Li  Li0  1  0.33319576  0.33426321  0.62118758  1
  Li  Li1  1  0.99892802  0.33319969  0.12119066  1
  Li  Li2  1  0.00107210  0.66680057  0.62119066  1
  Li  Li3  1  0.33426168  0.00107044  0.12118713  1
  Li  Li4  1  0.66573839  0.99892960  0.62118732  1
  Li  Li5  1  0.66680426  0.66573666  0.12118744  1
  I  I6  1  0.33351881  0.00097163  0.74423572  1
  I  I7  1  0.33253615  0.33350647  0.24423624  1
  I  I8  1  0.66746378  0.66649342  0.74423623  1
  I  I9  1  0.00096038  0.66745301  0.24423737  1
  I  I10  1  -0.00096047  0.33254694  0.74423719  1
  I  I11  1  0.66648116  -0.00097164  0.24423567  1
