# generated using pymatgen
data_LiBr
_symmetry_space_group_name_H-M   'P 1'
_cell_length_a   16.90124601
_cell_length_b   16.90125202
_cell_length_c   7.78736778
_cell_angle_alpha   90.00053407
_cell_angle_beta   90.00028918
_cell_angle_gamma   90.00002832
_symmetry_Int_Tables_number   1
_chemical_formula_structural   LiBr
_chemical_formula_sum   'Li32 Br32'
_cell_volume   2224.47887861
_cell_formula_units_Z   32
loop_
 _symmetry_equiv_pos_site_id
 _symmetry_equiv_pos_as_xyz
  1  'x, y, z'
loop_
 _atom_site_type_symbol
 _atom_site_label
 _atom_site_symmetry_multiplicity
 _atom_site_fract_x
 _atom_site_fract_y
 _atom_site_fract_z
 _atom_site_occupancy
  Li  Li0  1  0.45655026  0.14409292  0.37876903  1
  Li  Li1  1  0.85590636  0.54345158  0.12123417  1
  Li  Li2  1  0.35590764  0.95654745  0.12123415  1
  Li  Li3  1  0.04345258  0.35590615  0.87875879  1
  Li  Li4  1  0.64409304  0.95654980  0.62123720  1
  Li  Li5  1  0.35590763  0.45654753  0.12875518  1
  Li  Li6  1  0.64409241  0.54345154  0.12876646  1
  Li  Li7  1  0.85590606  0.95654395  0.62875059  1
  Li  Li8  1  0.14409269  0.54345026  0.62124319  1
  Li  Li9  1  0.14409381  0.04345487  0.62875993  1
  Li  Li10  1  0.54344923  0.14409221  0.87876702  1
  Li  Li11  1  0.04345039  0.64409142  0.37876977  1
  Li  Li12  1  0.54345161  0.85590694  0.37876169  1
  Li  Li13  1  0.14409382  0.45654744  0.12123871  1
  Li  Li14  1  0.64409199  0.04345116  0.12123792  1
  Li  Li15  1  0.95654938  0.64409421  0.87876589  1
  Li  Li16  1  0.35590696  0.04344937  0.62123402  1
  Li  Li17  1  0.85590727  0.45654978  0.62123415  1
  Li  Li18  1  0.45654897  0.35590795  0.37123565  1
  Li  Li19  1  0.95655084  0.14409313  0.37123683  1
  Li  Li20  1  0.95654354  0.85590771  0.87124076  1
  Li  Li21  1  0.45654424  0.64409267  0.87124910  1
  Li  Li22  1  0.04345537  0.14409385  0.87124765  1
  Li  Li23  1  0.54345680  0.35590718  0.87124437  1
  Li  Li24  1  0.54345060  0.64409470  0.37124281  1
  Li  Li25  1  0.04345144  0.85590752  0.37123773  1
  Li  Li26  1  0.35590695  0.54345672  0.62875204  1
  Li  Li27  1  0.85590674  0.04345145  0.12876239  1
  Li  Li28  1  0.14409195  0.95654853  0.12876116  1
  Li  Li29  1  0.64409315  0.45654451  0.62875542  1
  Li  Li30  1  0.95654768  0.35590637  0.37875996  1
  Li  Li31  1  0.45654734  0.85590625  0.87875380  1
  Br  Br32  1  0.93148273  0.16268463  0.06002904  1
  Br  Br33  1  0.83731608  0.06851714  0.43996977  1
  Br  Br34  1  0.33731564  0.43148426  0.43996683  1
  Br  Br35  1  0.56852035  0.33731092  0.56002023  1
  Br  Br36  1  0.66268901  0.43148050  0.93998061  1
  Br  Br37  1  0.33731416  0.93147816  0.81001525  1
  Br  Br38  1  0.66268289  0.06852306  0.81001746  1
  Br  Br39  1  0.83731301  0.43148185  0.31002518  1
  Br  Br40  1  0.16268828  0.06852099  0.93998410  1
  Br  Br41  1  0.16268490  0.56851845  0.31002987  1
  Br  Br42  1  0.06852175  0.16268842  0.56002464  1
  Br  Br43  1  0.56851630  0.66268521  0.06003293  1
  Br  Br44  1  0.06851496  0.83731529  0.06002728  1
  Br  Br45  1  0.16268526  0.93148422  0.43996925  1
  Br  Br46  1  0.66268481  0.56851673  0.43997277  1
  Br  Br47  1  0.43147847  0.66269009  0.56002528  1
  Br  Br48  1  0.33731195  0.56852058  0.93997921  1
  Br  Br49  1  0.83731007  0.93148075  0.93997524  1
  Br  Br50  1  0.93148079  0.33731545  0.68997329  1
  Br  Br51  1  0.43147828  0.16268438  0.68998136  1
  Br  Br52  1  0.43148013  0.83731307  0.18997221  1
  Br  Br53  1  0.93147988  0.66268687  0.18998044  1
  Br  Br54  1  0.56852164  0.16268579  0.18998410  1
  Br  Br55  1  0.06852027  0.33731291  0.18997586  1
  Br  Br56  1  0.06852110  0.66268446  0.68998339  1
  Br  Br57  1  0.56852078  0.83731552  0.68997581  1
  Br  Br58  1  0.33731601  0.06851863  0.31002325  1
  Br  Br59  1  0.83731495  0.56852183  0.81001779  1
  Br  Br60  1  0.16268643  0.43147752  0.81001989  1
  Br  Br61  1  0.66268658  0.93148103  0.31002648  1
  Br  Br62  1  0.43148424  0.33731426  0.06002492  1
  Br  Br63  1  0.93147962  0.83730989  0.56001874  1
