# generated using pymatgen
data_NaBr
_symmetry_space_group_name_H-M   'P 1'
_cell_length_a   7.37532674
_cell_length_b   4.26618775
_cell_length_c   7.39875141
_cell_angle_alpha   90.00031485
_cell_angle_beta   109.33585593
_cell_angle_gamma   89.99994169
_symmetry_Int_Tables_number   1
_chemical_formula_structural   NaBr
_chemical_formula_sum   'Na4 Br4'
_cell_volume   219.66699234
_cell_formula_units_Z   4
loop_
 _symmetry_equiv_pos_site_id
 _symmetry_equiv_pos_as_xyz
  1  'x, y, z'
loop_
 _atom_site_type_symbol
 _atom_site_label
 _atom_site_symmetry_multiplicity
 _atom_site_fract_x
 _atom_site_fract_y
 _atom_site_fract_z
 _atom_site_occupancy
  Na  Na0  1  0.97126936  0.24783489  0.42198676  1
  Na  Na1  1  0.47126930  0.74783489  0.42198670  1
  Na  Na2  1  0.97126835  0.75216480  0.92198026  1
  Na  Na3  1  0.47126840  0.25216481  0.92198032  1
  Br  Br4  1  0.22122392  0.25018823  0.17210325  1
  Br  Br5  1  0.72122398  0.75018823  0.17210329  1
  Br  Br6  1  0.22122460  0.74981207  0.67210363  1
  Br  Br7  1  0.72122456  0.24981207  0.67210359  1
