# generated using pymatgen
data_KI
_symmetry_space_group_name_H-M   'P 1'
_cell_length_a   7.18964517
_cell_length_b   7.16681030
_cell_length_c   7.18537415
_cell_angle_alpha   89.99997890
_cell_angle_beta   90.12955140
_cell_angle_gamma   89.99997355
_symmetry_Int_Tables_number   1
_chemical_formula_structural   KI
_chemical_formula_sum   'K4 I4'
_cell_volume   370.23855575
_cell_formula_units_Z   4
loop_
 _symmetry_equiv_pos_site_id
 _symmetry_equiv_pos_as_xyz
  1  'x, y, z'
loop_
 _atom_site_type_symbol
 _atom_site_label
 _atom_site_symmetry_multiplicity
 _atom_site_fract_x
 _atom_site_fract_y
 _atom_site_fract_z
 _atom_site_occupancy
  K  K0  1  0.25001350  0.50063244  0.24742333  1
  K  K1  1  0.74998617  0.00063237  0.25257802  1
  K  K2  1  0.74998649  0.49936756  0.75257667  1
  K  K3  1  0.25001383  -0.00063237  0.74742198  1
  I  I4  1  0.74979195  0.50084088  0.25247139  1
  I  I5  1  0.25020770  0.00084093  0.24752976  1
  I  I6  1  0.25020805  0.49915912  0.74752860  1
  I  I7  1  0.74979231  -0.00084093  0.75247025  1
