# generated using pymatgen
data_LiI
_symmetry_space_group_name_H-M   'P 1'
_cell_length_a   13.28732525
_cell_length_b   13.28735731
_cell_length_c   13.28736502
_cell_angle_alpha   89.99763735
_cell_angle_beta   89.99964803
_cell_angle_gamma   90.00000361
_symmetry_Int_Tables_number   1
_chemical_formula_structural   LiI
_chemical_formula_sum   'Li24 I24'
_cell_volume   2345.92997767
_cell_formula_units_Z   24
loop_
 _symmetry_equiv_pos_site_id
 _symmetry_equiv_pos_as_xyz
  1  'x, y, z'
loop_
 _atom_site_type_symbol
 _atom_site_label
 _atom_site_symmetry_multiplicity
 _atom_site_fract_x
 _atom_site_fract_y
 _atom_site_fract_z
 _atom_site_occupancy
  Li  Li0  1  0.66285624  0.42982994  0.23878018  1
  Li  Li1  1  0.16285578  0.07017012  0.76121832  1
  Li  Li2  1  0.73877751  0.66285632  0.07017116  1
  Li  Li3  1  0.73878028  0.83714221  0.57016866  1
  Li  Li4  1  0.92982880  0.26122399  0.33714237  1
  Li  Li5  1  0.23877987  0.66285840  0.42983155  1
  Li  Li6  1  0.76122105  0.16285579  0.07017081  1
  Li  Li7  1  0.26122193  0.33714319  0.92982833  1
  Li  Li8  1  0.57017176  0.73877932  0.83713972  1
  Li  Li9  1  0.42983093  0.23877560  0.66285835  1
  Li  Li10  1  0.07017058  0.76122039  0.16285947  1
  Li  Li11  1  0.33714477  0.92982999  0.26122238  1
  Li  Li12  1  0.83714487  0.57017046  0.73877749  1
  Li  Li13  1  0.76122097  0.33714150  0.57016872  1
  Li  Li14  1  0.23877853  0.83714340  0.92982990  1
  Li  Li15  1  0.26121966  0.16285846  0.42983113  1
  Li  Li16  1  0.07017156  0.73877572  0.66285701  1
  Li  Li17  1  0.42982810  0.26122094  0.16285963  1
  Li  Li18  1  0.57016979  0.76122402  0.33714280  1
  Li  Li19  1  0.92982892  0.23877916  0.83714107  1
  Li  Li20  1  0.66285603  0.07017012  0.73877717  1
  Li  Li21  1  0.16285505  0.42982995  0.26122185  1
  Li  Li22  1  0.33714387  0.57016960  0.76121991  1
  Li  Li23  1  0.83714385  0.92982985  0.23878102  1
  I  I24  1  0.79982997  0.40837332  0.38392097  1
  I  I25  1  0.29982927  0.09162737  0.61607980  1
  I  I26  1  0.88392207  0.79983085  0.09162487  1
  I  I27  1  0.88392097  0.70016647  0.59163000  1
  I  I28  1  0.90837059  0.11607640  0.20016525  1
  I  I29  1  0.38391967  0.79983389  0.40837047  1
  I  I30  1  0.61607685  0.29983010  0.09162526  1
  I  I31  1  0.11607769  0.20016821  0.90837546  1
  I  I32  1  0.59162430  0.88391753  0.70016832  1
  I  I33  1  0.40837088  0.38392323  0.79983507  1
  I  I34  1  0.09162361  0.61608248  0.29983103  1
  I  I35  1  0.20016568  0.90837375  0.11607977  1
  I  I36  1  0.70016797  0.59162583  0.88392046  1
  I  I37  1  0.61608061  0.20016649  0.59162951  1
  I  I38  1  0.38392301  0.70016960  0.90837509  1
  I  I39  1  0.11607890  0.29983430  0.40836989  1
  I  I40  1  0.09163014  0.88392326  0.79983409  1
  I  I41  1  0.40837490  0.11608288  0.29983103  1
  I  I42  1  0.59162945  0.61607677  0.20016555  1
  I  I43  1  0.90837629  0.38391789  0.70016992  1
  I  I44  1  0.79983386  0.09162580  0.88392080  1
  I  I45  1  0.29983204  0.40837476  0.11607909  1
  I  I46  1  0.20017037  0.59162646  0.61607908  1
  I  I47  1  0.70017024  0.90837387  0.38392024  1
