# generated using pymatgen
data_KI
_symmetry_space_group_name_H-M   'P 1'
_cell_length_a   6.14549865
_cell_length_b   6.14549868
_cell_length_c   17.40239355
_cell_angle_alpha   90.00000217
_cell_angle_beta   89.99999771
_cell_angle_gamma   89.97947204
_symmetry_Int_Tables_number   1
_chemical_formula_structural   KI
_chemical_formula_sum   'K8 I8'
_cell_volume   657.23883152
_cell_formula_units_Z   8
loop_
 _symmetry_equiv_pos_site_id
 _symmetry_equiv_pos_as_xyz
  1  'x, y, z'
loop_
 _atom_site_type_symbol
 _atom_site_label
 _atom_site_symmetry_multiplicity
 _atom_site_fract_x
 _atom_site_fract_y
 _atom_site_fract_z
 _atom_site_occupancy
  K  K0  1  0.00120018  0.00122681  0.37509353  1
  K  K1  1  0.00122681  0.00120018  0.62490645  1
  K  K2  1  0.50126784  0.49874966  0.37490947  1
  K  K3  1  -0.00122681  -0.00120016  0.12490646  1
  K  K4  1  0.49873217  0.50125032  0.87490946  1
  K  K5  1  -0.00120015  -0.00122681  0.87509354  1
  K  K6  1  0.50125032  0.49873215  0.12509053  1
  K  K7  1  0.49874965  0.50126783  0.62509054  1
  I  I8  1  0.00073441  0.50101863  0.00678968  1
  I  I9  1  0.50101862  0.00073440  0.99321033  1
  I  I10  1  0.50069611  -0.00098634  0.74319315  1
  I  I11  1  0.49898137  -0.00073441  0.49321032  1
  I  I12  1  0.49930389  0.00098634  0.24319320  1
  I  I13  1  -0.00073441  0.49898140  0.50678967  1
  I  I14  1  0.00098634  0.49930388  0.75680685  1
  I  I15  1  -0.00098634  0.50069610  0.25680680  1
