# generated using pymatgen
data_NaI
_symmetry_space_group_name_H-M   'P 1'
_cell_length_a   15.60264727
_cell_length_b   4.54364859
_cell_length_c   8.93027664
_cell_angle_alpha   89.99998109
_cell_angle_beta   89.99145519
_cell_angle_gamma   90.00004249
_symmetry_Int_Tables_number   1
_chemical_formula_structural   NaI
_chemical_formula_sum   'Na8 I8'
_cell_volume   633.09361563
_cell_formula_units_Z   8
loop_
 _symmetry_equiv_pos_site_id
 _symmetry_equiv_pos_as_xyz
  1  'x, y, z'
loop_
 _atom_site_type_symbol
 _atom_site_label
 _atom_site_symmetry_multiplicity
 _atom_site_fract_x
 _atom_site_fract_y
 _atom_site_fract_z
 _atom_site_occupancy
  Na  Na0  1  0.59154587  0.24998980  0.87922078  1
  Na  Na1  1  0.59154599  0.25001324  0.37922085  1
  Na  Na2  1  0.09154845  0.25001272  0.12074729  1
  Na  Na3  1  0.90845159  0.75001157  0.37925339  1
  Na  Na4  1  0.40845416  0.74998870  0.62077834  1
  Na  Na5  1  0.90845150  0.74998656  0.87925326  1
  Na  Na6  1  0.09154844  0.24998772  0.62074714  1
  Na  Na7  1  0.40845407  0.75001210  0.12077832  1
  I  I8  1  0.11302890  0.74995843  0.37233152  1
  I  I9  1  0.11302901  0.75004524  0.87233134  1
  I  I10  1  0.61302902  0.75004257  0.62762870  1
  I  I11  1  0.38697095  0.25004546  0.87237089  1
  I  I12  1  0.88697119  0.24995353  0.12766932  1
  I  I13  1  0.38697102  0.24995741  0.37237078  1
  I  I14  1  0.61302884  0.74995478  0.12762883  1
  I  I15  1  0.88697099  0.25004016  0.62766925  1
