# generated using pymatgen
data_LiBr
_symmetry_space_group_name_H-M   'P 1'
_cell_length_a   7.75364191
_cell_length_b   7.75360855
_cell_length_c   13.05230925
_cell_angle_alpha   90.00010866
_cell_angle_beta   90.00016207
_cell_angle_gamma   89.99993705
_symmetry_Int_Tables_number   1
_chemical_formula_structural   LiBr
_chemical_formula_sum   'Li16 Br16'
_cell_volume   784.68791885
_cell_formula_units_Z   16
loop_
 _symmetry_equiv_pos_site_id
 _symmetry_equiv_pos_as_xyz
  1  'x, y, z'
loop_
 _atom_site_type_symbol
 _atom_site_label
 _atom_site_symmetry_multiplicity
 _atom_site_fract_x
 _atom_site_fract_y
 _atom_site_fract_z
 _atom_site_occupancy
  Li  Li0  1  0.18413962  0.68495256  0.89274463  1
  Li  Li1  1  0.18495689  0.18414214  0.14274245  1
  Li  Li2  1  0.81585723  0.68495950  0.39274518  1
  Li  Li3  1  0.81585820  0.31504308  0.89274620  1
  Li  Li4  1  0.81504170  0.81585822  0.14274564  1
  Li  Li5  1  0.31504386  0.68414184  0.14274365  1
  Li  Li6  1  0.68495495  0.31586034  0.14274532  1
  Li  Li7  1  0.81504273  0.18414159  0.64274626  1
  Li  Li8  1  0.18495000  0.81586344  0.64274497  1
  Li  Li9  1  0.31586219  0.81504534  0.39274629  1
  Li  Li10  1  0.31504625  0.31586102  0.64274483  1
  Li  Li11  1  0.68414146  0.18495395  0.39274461  1
  Li  Li12  1  0.68495781  0.68414043  0.64274466  1
  Li  Li13  1  0.31586201  0.18495594  0.89274453  1
  Li  Li14  1  0.68414200  0.81504575  0.89274418  1
  Li  Li15  1  0.18413991  0.31504450  0.39274535  1
  Br  Br16  1  0.74881588  0.06367966  0.01732490  1
  Br  Br17  1  0.56368213  0.74881763  0.26732418  1
  Br  Br18  1  0.25118329  0.06368068  0.51732267  1
  Br  Br19  1  0.25118091  0.93631923  0.01732380  1
  Br  Br20  1  0.43631963  0.25117992  0.26732393  1
  Br  Br21  1  0.93631916  0.24881725  0.26732363  1
  Br  Br22  1  0.06368114  0.75118240  0.26732392  1
  Br  Br23  1  0.43632082  0.74881808  0.76732302  1
  Br  Br24  1  0.56368057  0.25118175  0.76732255  1
  Br  Br25  1  0.75118064  0.43631831  0.51732253  1
  Br  Br26  1  0.93632005  0.75118052  0.76732304  1
  Br  Br27  1  0.24881567  0.56367967  0.51732230  1
  Br  Br28  1  0.06368077  0.24881607  0.76732404  1
  Br  Br29  1  0.75118226  0.56368032  0.01732479  1
  Br  Br30  1  0.24882057  0.43632065  0.01732376  1
  Br  Br31  1  0.74881972  0.93631819  0.51732337  1
