# generated using pymatgen
data_KI
_symmetry_space_group_name_H-M   'P 1'
_cell_length_a   9.70521516
_cell_length_b   4.53259592
_cell_length_c   8.49164685
_cell_angle_alpha   89.98550965
_cell_angle_beta   89.91281549
_cell_angle_gamma   89.99690285
_symmetry_Int_Tables_number   1
_chemical_formula_structural   KI
_chemical_formula_sum   'K4 I4'
_cell_volume   373.54556049
_cell_formula_units_Z   4
loop_
 _symmetry_equiv_pos_site_id
 _symmetry_equiv_pos_as_xyz
  1  'x, y, z'
loop_
 _atom_site_type_symbol
 _atom_site_label
 _atom_site_symmetry_multiplicity
 _atom_site_fract_x
 _atom_site_fract_y
 _atom_site_fract_z
 _atom_site_occupancy
  K  K0  1  0.37292841  0.50096988  0.38628214  1
  K  K1  1  0.87285811  0.50040532  0.38596594  1
  K  K2  1  0.62715617  0.49910827  0.88637240  1
  K  K3  1  0.12724519  0.49961130  0.88604384  1
  I  I4  1  0.87680850  -0.00029611  0.05359102  1
  I  I5  1  0.37681942  0.00104207  0.05393068  1
  I  I6  1  0.12306854  0.00029976  0.55356470  1
  I  I7  1  0.62311566  -0.00114049  0.55388471  1
