# generated using pymatgen
data_NaBr
_symmetry_space_group_name_H-M   'P 1'
_cell_length_a   8.52963146
_cell_length_b   4.26998087
_cell_length_c   6.03839966
_cell_angle_alpha   90.00000145
_cell_angle_beta   89.99999530
_cell_angle_gamma   89.99999750
_symmetry_Int_Tables_number   1
_chemical_formula_structural   NaBr
_chemical_formula_sum   'Na4 Br4'
_cell_volume   219.92674699
_cell_formula_units_Z   4
loop_
 _symmetry_equiv_pos_site_id
 _symmetry_equiv_pos_as_xyz
  1  'x, y, z'
loop_
 _atom_site_type_symbol
 _atom_site_label
 _atom_site_symmetry_multiplicity
 _atom_site_fract_x
 _atom_site_fract_y
 _atom_site_fract_z
 _atom_site_occupancy
  Na  Na0  1  0.62621231  0.75043796  -0.00187846  1
  Na  Na1  1  0.37378756  0.25043822  0.50187540  1
  Na  Na2  1  0.87378757  0.24956180  0.49812435  1
  Na  Na3  1  0.12621230  0.74956207  0.00187871  1
  Br  Br4  1  0.62391842  0.74989002  0.49913804  1
  Br  Br5  1  0.37608171  0.24989007  0.00086013  1
  Br  Br6  1  0.87608171  0.25010990  -0.00086032  1
  Br  Br7  1  0.12391842  0.75010996  0.50086216  1
