# generated using pymatgen
data_LiBr
_symmetry_space_group_name_H-M   'P 1'
_cell_length_a   5.81963674
_cell_length_b   5.34930894
_cell_length_c   8.30797093
_cell_angle_alpha   89.99987312
_cell_angle_beta   129.25589371
_cell_angle_gamma   90.00002587
_symmetry_Int_Tables_number   1
_chemical_formula_structural   LiBr
_chemical_formula_sum   'Li4 Br4'
_cell_volume   200.26877502
_cell_formula_units_Z   4
loop_
 _symmetry_equiv_pos_site_id
 _symmetry_equiv_pos_as_xyz
  1  'x, y, z'
loop_
 _atom_site_type_symbol
 _atom_site_label
 _atom_site_symmetry_multiplicity
 _atom_site_fract_x
 _atom_site_fract_y
 _atom_site_fract_z
 _atom_site_occupancy
  Li  Li0  1  0.44204369  0.72082338  0.32542727  1
  Li  Li1  1  0.94204317  0.22082007  0.32542678  1
  Li  Li2  1  0.44204571  0.27918044  0.82542722  1
  Li  Li3  1  0.94204603  0.77917728  0.82542785  1
  Br  Br4  1  0.94278851  0.49904619  0.07548923  1
  Br  Br5  1  0.44278626  -0.00095364  0.07548691  1
  Br  Br6  1  0.94278542  0.50095305  0.57548708  1
  Br  Br7  1  0.44278751  0.00095324  0.57548918  1
