# generated using pymatgen
data_LiBr
_symmetry_space_group_name_H-M   'P 1'
_cell_length_a   10.48251318
_cell_length_b   10.48252245
_cell_length_c   11.90752946
_cell_angle_alpha   90.00392635
_cell_angle_beta   89.99605045
_cell_angle_gamma   120.00679835
_symmetry_Int_Tables_number   1
_chemical_formula_structural   LiBr
_chemical_formula_sum   'Li18 Br18'
_cell_volume   1133.06221725
_cell_formula_units_Z   18
loop_
 _symmetry_equiv_pos_site_id
 _symmetry_equiv_pos_as_xyz
  1  'x, y, z'
loop_
 _atom_site_type_symbol
 _atom_site_label
 _atom_site_symmetry_multiplicity
 _atom_site_fract_x
 _atom_site_fract_y
 _atom_site_fract_z
 _atom_site_occupancy
  Li  Li0  1  0.08331364  0.66579618  0.31263443  1
  Li  Li1  1  0.08334553  0.41753180  0.81263372  1
  Li  Li2  1  0.66753757  0.58335479  0.47929993  1
  Li  Li3  1  0.91581179  0.33247751  0.47930555  1
  Li  Li4  1  0.00085519  0.75085267  0.64597245  1
  Li  Li5  1  0.33418918  0.41751994  0.31263788  1
  Li  Li6  1  0.91580132  0.58332183  0.97929904  1
  Li  Li7  1  0.66752185  0.08418636  0.97930614  1
  Li  Li8  1  0.58246838  0.91665542  0.31263315  1
  Li  Li9  1  0.58247825  0.66581183  0.81263896  1
  Li  Li10  1  0.41664811  0.33246322  0.97930062  1
  Li  Li11  1  0.41667519  0.08419559  0.47929971  1
  Li  Li12  1  0.24913535  0.24998922  0.64596592  1
  Li  Li13  1  0.24914586  0.99914612  0.14597309  1
  Li  Li14  1  0.33420459  0.91668973  0.81263350  1
  Li  Li15  1  0.00087077  0.25001966  0.14596710  1
  Li  Li16  1  0.74998056  0.99912899  0.64596614  1
  Li  Li17  1  0.75001101  0.75086458  0.14596672  1
  Br  Br18  1  0.99929264  0.23952833  0.64651987  1
  Br  Br19  1  0.99927693  0.75975413  0.14653803  1
  Br  Br20  1  0.09380554  0.66737380  0.81318548  1
  Br  Br21  1  0.57355889  0.90617731  0.81319940  1
  Br  Br22  1  0.42715745  0.09310903  -0.02013352  1
  Br  Br23  1  0.76049097  0.75977566  0.64653263  1
  Br  Br24  1  0.57357870  0.66738937  0.31320422  1
  Br  Br25  1  0.09382521  0.42644264  0.31319966  1
  Br  Br26  1  0.24024618  0.00072273  0.64653787  1
  Br  Br27  1  0.24022423  0.23950963  0.14653160  1
  Br  Br28  1  0.33262549  0.90619593  0.31318618  1
  Br  Br29  1  0.33261080  0.42642035  0.81320456  1
  Br  Br30  1  -0.09308779  0.33405622  -0.02012839  1
  Br  Br31  1  -0.09310966  0.57284224  0.47986546  1
  Br  Br32  1  0.76047102  0.00070708  0.14651988  1
  Br  Br33  1  0.42713715  0.33404031  0.47985255  1
  Br  Br34  1  0.66595922  0.57286268  -0.02014701  1
  Br  Br35  1  0.66594288  0.09308712  0.47987101  1
