# generated using pymatgen
data_LiI
_symmetry_space_group_name_H-M   'P 1'
_cell_length_a   8.05207950
_cell_length_b   8.05207777
_cell_length_c   7.02664833
_cell_angle_alpha   90.00004599
_cell_angle_beta   89.99993909
_cell_angle_gamma   120.00155405
_symmetry_Int_Tables_number   1
_chemical_formula_structural   LiI
_chemical_formula_sum   'Li6 I6'
_cell_volume   394.53729605
_cell_formula_units_Z   6
loop_
 _symmetry_equiv_pos_site_id
 _symmetry_equiv_pos_as_xyz
  1  'x, y, z'
loop_
 _atom_site_type_symbol
 _atom_site_label
 _atom_site_symmetry_multiplicity
 _atom_site_fract_x
 _atom_site_fract_y
 _atom_site_fract_z
 _atom_site_occupancy
  Li  Li0  1  0.00073280  0.33393859  0.24803952  1
  Li  Li1  1  0.66605615  0.66679106  0.24804185  1
  Li  Li2  1  0.00073900  0.66679865  0.74804163  1
  Li  Li3  1  0.33320905  0.33394317  0.74804174  1
  Li  Li4  1  0.66606103  0.99926621  0.74803954  1
  Li  Li5  1  0.33320192  0.99926133  0.24804109  1
  I  I6  1  0.33329202  0.33291631  0.14178655  1
  I  I7  1  0.66707618  0.00037175  0.14178625  1
  I  I8  1  0.33329941  0.00037987  0.64178649  1
  I  I9  1  -0.00037188  0.33292399  0.64178597  1
  I  I10  1  0.66708389  0.66670791  0.64178684  1
  I  I11  1  -0.00037958  0.66670119  0.14178675  1
