# generated using pymatgen
data_LiBr
_symmetry_space_group_name_H-M   'P 1'
_cell_length_a   5.68665391
_cell_length_b   7.22413817
_cell_length_c   4.71892704
_cell_angle_alpha   90.00027646
_cell_angle_beta   90.00000988
_cell_angle_gamma   90.00000008
_symmetry_Int_Tables_number   1
_chemical_formula_structural   LiBr
_chemical_formula_sum   'Li4 Br4'
_cell_volume   193.85906060
_cell_formula_units_Z   4
loop_
 _symmetry_equiv_pos_site_id
 _symmetry_equiv_pos_as_xyz
  1  'x, y, z'
loop_
 _atom_site_type_symbol
 _atom_site_label
 _atom_site_symmetry_multiplicity
 _atom_site_fract_x
 _atom_site_fract_y
 _atom_site_fract_z
 _atom_site_occupancy
  Li  Li0  1  0.50752747  0.08092048  0.50082845  1
  Li  Li1  1  0.49247595  0.58092019  0.99917378  1
  Li  Li2  1  0.99246562  0.91907903  0.00082363  1
  Li  Li3  1  0.00753793  0.41907882  0.49917415  1
  Br  Br4  1  0.49987121  0.43387329  0.49971347  1
  Br  Br5  1  0.50012530  0.93387333  0.00028396  1
  Br  Br6  1  0.00012404  0.56612737  0.99971733  1
  Br  Br7  1  -0.00012750  0.06612749  0.50028525  1
