# generated using pymatgen
data_LiBr
_symmetry_space_group_name_H-M   'P 1'
_cell_length_a   6.06068842
_cell_length_b   6.00299002
_cell_length_c   5.55994876
_cell_angle_alpha   90.00067446
_cell_angle_beta   89.99938051
_cell_angle_gamma   90.00089731
_symmetry_Int_Tables_number   1
_chemical_formula_structural   LiBr
_chemical_formula_sum   'Li4 Br4'
_cell_volume   202.28345726
_cell_formula_units_Z   4
loop_
 _symmetry_equiv_pos_site_id
 _symmetry_equiv_pos_as_xyz
  1  'x, y, z'
loop_
 _atom_site_type_symbol
 _atom_site_label
 _atom_site_symmetry_multiplicity
 _atom_site_fract_x
 _atom_site_fract_y
 _atom_site_fract_z
 _atom_site_occupancy
  Li  Li0  1  0.74949147  0.75050864  0.25160519  1
  Li  Li1  1  0.25050967  0.25050911  0.24839745  1
  Li  Li2  1  0.75051013  0.24948961  0.75160526  1
  Li  Li3  1  0.24949202  0.74948942  0.74839751  1
  Br  Br4  1  0.00028776  0.00077310  0.49948418  1
  Br  Br5  1  -0.00028948  0.50077312  0.00051272  1
  Br  Br6  1  0.49971060  -0.00077145  -0.00051537  1
  Br  Br7  1  0.50028782  0.49922845  0.50051306  1
