# generated using pymatgen
data_LiI
_symmetry_space_group_name_H-M   'P 1'
_cell_length_a   12.46495664
_cell_length_b   10.72740486
_cell_length_c   9.41237556
_cell_angle_alpha   89.99986043
_cell_angle_beta   89.99995985
_cell_angle_gamma   90.00173790
_symmetry_Int_Tables_number   1
_chemical_formula_structural   LiI
_chemical_formula_sum   'Li16 I16'
_cell_volume   1258.59120001
_cell_formula_units_Z   16
loop_
 _symmetry_equiv_pos_site_id
 _symmetry_equiv_pos_as_xyz
  1  'x, y, z'
loop_
 _atom_site_type_symbol
 _atom_site_label
 _atom_site_symmetry_multiplicity
 _atom_site_fract_x
 _atom_site_fract_y
 _atom_site_fract_z
 _atom_site_occupancy
  Li  Li0  1  0.11150385  0.74995630  0.73993539  1
  Li  Li1  1  0.88849584  0.25004434  0.73993370  1
  Li  Li2  1  0.13849726  -0.00004499  -0.01006659  1
  Li  Li3  1  0.38849595  0.25004427  0.23993444  1
  Li  Li4  1  0.63849763  -0.00004631  0.48993420  1
  Li  Li5  1  0.36150406  0.50004672  -0.01006580  1
  Li  Li6  1  0.61150386  0.74995536  0.23993586  1
  Li  Li7  1  0.63849689  0.49995398  -0.01006539  1
  Li  Li8  1  0.36150151  0.00004445  0.48993190  1
  Li  Li9  1  0.61150129  0.24995549  0.73993382  1
  Li  Li10  1  0.38849727  0.75004493  0.73993348  1
  Li  Li11  1  0.13849727  0.49995482  0.48993484  1
  Li  Li12  1  0.86150455  0.50004453  0.48993319  1
  Li  Li13  1  0.86150279  0.00004437  -0.01006714  1
  Li  Li14  1  0.11150138  0.24995472  0.23993441  1
  Li  Li15  1  0.88849844  0.75004575  0.23993449  1
  I  I16  1  0.00020289  0.20415688  0.98971945  1
  I  I17  1  -0.00020481  0.79584346  0.98972208  1
  I  I18  1  0.24978838  0.45415790  0.23971592  1
  I  I19  1  0.49979619  0.79584336  0.48971924  1
  I  I20  1  0.74978640  0.45415775  0.73971713  1
  I  I21  1  0.25021090  0.04584251  0.23971853  1
  I  I22  1  0.50020301  0.20415519  0.48971924  1
  I  I23  1  0.74978936  0.95415800  0.23971850  1
  I  I24  1  0.25021362  0.54584271  0.73972068  1
  I  I25  1  0.50020517  0.70415755  0.98972080  1
  I  I26  1  0.49979748  0.29584306  0.98972230  1
  I  I27  1  0.24978951  0.95415939  0.73971759  1
  I  I28  1  0.75020977  0.04584151  0.73971995  1
  I  I29  1  0.75021247  0.54584221  0.23971657  1
  I  I30  1  0.00020375  0.70415679  0.48972102  1
  I  I31  1  -0.00020393  0.29584300  0.48972380  1
