# generated using pymatgen
data_LiBr
_symmetry_space_group_name_H-M   'P 1'
_cell_length_a   7.79663209
_cell_length_b   7.79663187
_cell_length_c   11.00816635
_cell_angle_alpha   90.00000108
_cell_angle_beta   90.00000044
_cell_angle_gamma   90.00001705
_symmetry_Int_Tables_number   1
_chemical_formula_structural   LiBr
_chemical_formula_sum   'Li16 Br16'
_cell_volume   669.15858418
_cell_formula_units_Z   16
loop_
 _symmetry_equiv_pos_site_id
 _symmetry_equiv_pos_as_xyz
  1  'x, y, z'
loop_
 _atom_site_type_symbol
 _atom_site_label
 _atom_site_symmetry_multiplicity
 _atom_site_fract_x
 _atom_site_fract_y
 _atom_site_fract_z
 _atom_site_occupancy
  Li  Li0  1  -0.00014172  0.75100343  0.79168927  1
  Li  Li1  1  0.25100281  -0.00014136  0.04169136  1
  Li  Li2  1  0.00014036  0.75100108  0.29168835  1
  Li  Li3  1  0.00013907  0.24899599  0.79169080  1
  Li  Li4  1  0.74899370  0.00014086  0.04169069  1
  Li  Li5  1  0.24899465  0.49985921  0.04168933  1
  Li  Li6  1  0.75100308  0.50014113  0.04169081  1
  Li  Li7  1  0.74899880  -0.00014121  0.54168804  1
  Li  Li8  1  0.25100738  0.00013925  0.54168981  1
  Li  Li9  1  0.50014183  0.74899826  0.29168806  1
  Li  Li10  1  0.24900160  0.50014092  0.54168793  1
  Li  Li11  1  0.49985805  0.25100408  0.29169030  1
  Li  Li12  1  0.75100856  0.49985925  0.54169130  1
  Li  Li13  1  0.50014029  0.25100788  0.79168964  1
  Li  Li14  1  0.49985736  0.74899960  0.79168713  1
  Li  Li15  1  -0.00014109  0.24899520  0.29169118  1
  Br  Br16  1  -0.00018878  0.74979755  0.54186000  1
  Br  Br17  1  0.24979659  -0.00018895  0.79186043  1
  Br  Br18  1  0.00018827  0.74979731  0.04186091  1
  Br  Br19  1  0.00019043  0.25020171  0.54185986  1
  Br  Br20  1  0.75020122  0.00018884  0.79186038  1
  Br  Br21  1  0.25020124  0.49981065  0.79186025  1
  Br  Br22  1  0.74979719  0.50019003  0.79186019  1
  Br  Br23  1  0.75020206  -0.00019143  0.29186027  1
  Br  Br24  1  0.24979870  0.00018988  0.29186097  1
  Br  Br25  1  0.50018786  0.75020162  0.04186055  1
  Br  Br26  1  0.25020187  0.50018969  0.29186020  1
  Br  Br27  1  0.49981037  0.24979786  0.04186051  1
  Br  Br28  1  0.74979710  0.49980961  0.29186109  1
  Br  Br29  1  0.50019114  0.24979817  0.54186046  1
  Br  Br30  1  0.49981047  0.75020282  0.54186028  1
  Br  Br31  1  -0.00019044  0.25020109  0.04186112  1
