# generated using pymatgen
data_LiBr
_symmetry_space_group_name_H-M   'P 1'
_cell_length_a   7.37132491
_cell_length_b   7.05278559
_cell_length_c   7.34324540
_cell_angle_alpha   89.99925549
_cell_angle_beta   89.99993661
_cell_angle_gamma   89.99782820
_symmetry_Int_Tables_number   1
_chemical_formula_structural   LiBr
_chemical_formula_sum   'Li8 Br8'
_cell_volume   381.76338914
_cell_formula_units_Z   8
loop_
 _symmetry_equiv_pos_site_id
 _symmetry_equiv_pos_as_xyz
  1  'x, y, z'
loop_
 _atom_site_type_symbol
 _atom_site_label
 _atom_site_symmetry_multiplicity
 _atom_site_fract_x
 _atom_site_fract_y
 _atom_site_fract_z
 _atom_site_occupancy
  Li  Li0  1  0.65954680  0.84348713  0.15215311  1
  Li  Li1  1  0.65954419  0.65650993  0.65213443  1
  Li  Li2  1  0.15953096  0.65650193  0.84785545  1
  Li  Li3  1  0.84045225  0.15651249  0.65213847  1
  Li  Li4  1  0.34045974  0.34349900  0.34785767  1
  Li  Li5  1  0.84045696  0.34349159  0.15214889  1
  Li  Li6  1  0.15954458  0.84349651  0.34785320  1
  Li  Li7  1  0.34046498  0.15650551  0.84785135  1
  Br  Br8  1  0.14253101  0.14937595  0.14809989  1
  Br  Br9  1  0.14254326  0.35061580  0.64810683  1
  Br  Br10  1  0.64254212  0.35062187  0.85189310  1
  Br  Br11  1  0.35746214  0.85062377  0.64810270  1
  Br  Br12  1  0.85746678  0.64937657  0.35189818  1
  Br  Br13  1  0.35746240  0.64938349  0.14810566  1
  Br  Br14  1  0.64252761  0.14936866  0.35190058  1
  Br  Br15  1  0.85746423  0.85062980  0.85190049  1
