# generated using pymatgen
data_LiBr
_symmetry_space_group_name_H-M   'P 1'
_cell_length_a   4.33189265
_cell_length_b   7.26072169
_cell_length_c   6.88081612
_cell_angle_alpha   90.00026300
_cell_angle_beta   89.96928520
_cell_angle_gamma   89.99997665
_symmetry_Int_Tables_number   1
_chemical_formula_structural   LiBr
_chemical_formula_sum   'Li4 Br4'
_cell_volume   216.41998663
_cell_formula_units_Z   4
loop_
 _symmetry_equiv_pos_site_id
 _symmetry_equiv_pos_as_xyz
  1  'x, y, z'
loop_
 _atom_site_type_symbol
 _atom_site_label
 _atom_site_symmetry_multiplicity
 _atom_site_fract_x
 _atom_site_fract_y
 _atom_site_fract_z
 _atom_site_occupancy
  Li  Li0  1  0.75091909  0.90311360  0.84643302  1
  Li  Li1  1  0.24908103  0.40311621  0.65356911  1
  Li  Li2  1  0.24908102  0.09688458  0.15356762  1
  Li  Li3  1  0.75091891  0.59688552  0.34643134  1
  Br  Br4  1  0.25021476  0.07605097  0.77790974  1
  Br  Br5  1  0.74978498  0.57605031  0.72208965  1
  Br  Br6  1  0.74978515  -0.07605061  0.22208966  1
  Br  Br7  1  0.25021507  0.42394944  0.27790985  1
