# generated using pymatgen
data_LiBr
_symmetry_space_group_name_H-M   'P 1'
_cell_length_a   9.93105109
_cell_length_b   11.29026644
_cell_length_c   8.70570579
_cell_angle_alpha   89.99997379
_cell_angle_beta   90.00002736
_cell_angle_gamma   89.99993690
_symmetry_Int_Tables_number   1
_chemical_formula_structural   LiBr
_chemical_formula_sum   'Li16 Br16'
_cell_volume   976.12040957
_cell_formula_units_Z   16
loop_
 _symmetry_equiv_pos_site_id
 _symmetry_equiv_pos_as_xyz
  1  'x, y, z'
loop_
 _atom_site_type_symbol
 _atom_site_label
 _atom_site_symmetry_multiplicity
 _atom_site_fract_x
 _atom_site_fract_y
 _atom_site_fract_z
 _atom_site_occupancy
  Li  Li0  1  0.00012090  0.64530037  0.67385284  1
  Li  Li1  1  -0.00011990  0.35469814  0.67385308  1
  Li  Li2  1  0.24987856  0.89530196  0.92385182  1
  Li  Li3  1  0.49987939  0.35469806  0.17385327  1
  Li  Li4  1  0.74987879  0.89530216  0.42385249  1
  Li  Li5  1  0.25012053  0.60470052  0.92385133  1
  Li  Li6  1  0.50011991  0.64529949  0.17385175  1
  Li  Li7  1  0.74987906  0.39530203  0.92385234  1
  Li  Li8  1  0.25012057  0.10470062  0.42385154  1
  Li  Li9  1  0.50011994  0.14529941  0.67385203  1
  Li  Li10  1  0.49987897  0.85469742  0.67385347  1
  Li  Li11  1  0.24987885  0.39530176  0.42385196  1
  Li  Li12  1  0.75012182  0.60470006  0.42385144  1
  Li  Li13  1  0.75012171  0.10469995  0.92385167  1
  Li  Li14  1  0.00012065  0.14530016  0.17385311  1
  Li  Li15  1  -0.00011985  0.85469832  0.17385309  1
  Br  Br16  1  0.69831597  0.49988585  0.17407285  1
  Br  Br17  1  0.30168332  0.50011197  0.17406934  1
  Br  Br18  1  0.55168373  0.74988719  0.42407059  1
  Br  Br19  1  0.80168422  0.50011284  0.67407086  1
  Br  Br20  1  0.05168374  0.74988741  0.92407099  1
  Br  Br21  1  0.94831682  0.75011401  0.42407321  1
  Br  Br22  1  0.19831697  0.49988651  0.67407250  1
  Br  Br23  1  0.05168380  0.24988718  0.42407147  1
  Br  Br24  1  0.94831666  0.25011410  0.92407328  1
  Br  Br25  1  0.19831691  -0.00011349  0.17407223  1
  Br  Br26  1  0.80168381  0.00011269  0.17407071  1
  Br  Br27  1  0.55168372  0.24988718  0.92407026  1
  Br  Br28  1  0.44831564  0.75011449  0.92407345  1
  Br  Br29  1  0.44831567  0.25011420  0.42407342  1
  Br  Br30  1  0.69831558  -0.00011462  0.67407331  1
  Br  Br31  1  0.30168353  0.00011204  0.67406910  1
