# generated using pymatgen
data_LiBr
_symmetry_space_group_name_H-M   'P 1'
_cell_length_a   11.01989040
_cell_length_b   11.01987081
_cell_length_c   7.21286204
_cell_angle_alpha   90.00367734
_cell_angle_beta   90.00222180
_cell_angle_gamma   89.99971133
_symmetry_Int_Tables_number   1
_chemical_formula_structural   LiBr
_chemical_formula_sum   'Li16 Br16'
_cell_volume   875.91386852
_cell_formula_units_Z   16
loop_
 _symmetry_equiv_pos_site_id
 _symmetry_equiv_pos_as_xyz
  1  'x, y, z'
loop_
 _atom_site_type_symbol
 _atom_site_label
 _atom_site_symmetry_multiplicity
 _atom_site_fract_x
 _atom_site_fract_y
 _atom_site_fract_z
 _atom_site_occupancy
  Li  Li0  1  0.87460021  0.55534134  0.92019916  1
  Li  Li1  1  0.05534739  0.87459946  0.17020058  1
  Li  Li2  1  0.12539995  0.55533559  0.42020536  1
  Li  Li3  1  0.12541602  0.44465843  0.92022057  1
  Li  Li4  1  0.94465811  0.12541256  0.17022097  1
  Li  Li5  1  0.44465247  0.37458876  0.17020878  1
  Li  Li6  1  0.55533946  0.62540502  0.17020604  1
  Li  Li7  1  0.94465967  0.87458627  0.67021458  1
  Li  Li8  1  0.05532888  0.12540277  0.67020449  1
  Li  Li9  1  0.62542087  0.94466278  0.42022262  1
  Li  Li10  1  0.44466453  0.62541457  0.67021714  1
  Li  Li11  1  0.37460109  0.05533457  0.42019172  1
  Li  Li12  1  0.55533692  0.37459819  0.67019855  1
  Li  Li13  1  0.62539883  0.05533128  0.92019578  1
  Li  Li14  1  0.37458353  0.94466034  0.92021591  1
  Li  Li15  1  0.87458502  0.44465444  0.42021842  1
  Br  Br16  1  0.55592858  0.85080166  0.10776728  1
  Br  Br17  1  0.35079579  0.55593053  0.35776314  1
  Br  Br18  1  0.44407485  0.85080953  0.60776070  1
  Br  Br19  1  0.44405357  0.14919349  0.10772319  1
  Br  Br20  1  0.64919047  0.44406303  0.35773846  1
  Br  Br21  1  0.14920476  0.05594166  0.35774311  1
  Br  Br22  1  0.85081373  0.94407023  0.35775689  1
  Br  Br23  1  0.64920384  0.55594016  0.85774405  1
  Br  Br24  1  0.35080907  0.44407314  0.85775031  1
  Br  Br25  1  0.94405660  0.64919196  0.60773328  1
  Br  Br26  1  0.14919036  0.94405785  0.85773019  1
  Br  Br27  1  0.05592708  0.35079822  0.60776549  1
  Br  Br28  1  0.85079559  0.05593102  0.85776247  1
  Br  Br29  1  0.94407448  0.35080756  0.10776109  1
  Br  Br30  1  0.05594237  0.64920175  0.10774057  1
  Br  Br31  1  0.55594591  0.14920181  0.60772758  1
