# generated using pymatgen
data_LiI
_symmetry_space_group_name_H-M   'P 1'
_cell_length_a   8.32127297
_cell_length_b   8.32134695
_cell_length_c   6.53742965
_cell_angle_alpha   90.00114824
_cell_angle_beta   89.99643667
_cell_angle_gamma   89.99795249
_symmetry_Int_Tables_number   1
_chemical_formula_structural   LiI
_chemical_formula_sum   'Li8 I8'
_cell_volume   452.67908123
_cell_formula_units_Z   8
loop_
 _symmetry_equiv_pos_site_id
 _symmetry_equiv_pos_as_xyz
  1  'x, y, z'
loop_
 _atom_site_type_symbol
 _atom_site_label
 _atom_site_symmetry_multiplicity
 _atom_site_fract_x
 _atom_site_fract_y
 _atom_site_fract_z
 _atom_site_occupancy
  Li  Li0  1  0.74982543  0.49879678  0.02669686  1
  Li  Li1  1  0.00119929  0.75017167  0.52671056  1
  Li  Li2  1  0.75017560  -0.00121686  0.02669685  1
  Li  Li3  1  -0.00119311  0.24983626  0.52664604  1
  Li  Li4  1  0.24980906  0.00120140  0.02671109  1
  Li  Li5  1  0.25016305  0.50119209  0.02667019  1
  Li  Li6  1  0.49880666  0.25017805  0.52672073  1
  Li  Li7  1  0.50122195  0.74982749  0.52669332  1
  I  I8  1  0.75024748  0.00035141  0.59105384  1
  I  I9  1  0.49965337  0.74975521  0.09103889  1
  I  I10  1  0.74977234  0.50035705  0.59103262  1
  I  I11  1  0.50033758  0.25022636  0.09101418  1
  I  I12  1  0.25022629  0.49965684  0.59113542  1
  I  I13  1  0.24977117  -0.00033812  0.59100487  1
  I  I14  1  0.00034293  0.24977755  0.09115670  1
  I  I15  1  -0.00035909  0.75022682  0.09102247  1
