# generated using pymatgen
data_NaI
_symmetry_space_group_name_H-M   'P 1'
_cell_length_a   4.57397382
_cell_length_b   4.57397381
_cell_length_c   15.96742039
_cell_angle_alpha   90.00005657
_cell_angle_beta   89.99990463
_cell_angle_gamma   89.99999736
_symmetry_Int_Tables_number   1
_chemical_formula_structural   NaI
_chemical_formula_sum   'Na4 I4'
_cell_volume   334.05817767
_cell_formula_units_Z   4
loop_
 _symmetry_equiv_pos_site_id
 _symmetry_equiv_pos_as_xyz
  1  'x, y, z'
loop_
 _atom_site_type_symbol
 _atom_site_label
 _atom_site_symmetry_multiplicity
 _atom_site_fract_x
 _atom_site_fract_y
 _atom_site_fract_z
 _atom_site_occupancy
  Na  Na0  1  0.10172801  0.90921879  0.94800335  1
  Na  Na1  1  0.90921836  0.89827104  0.69800351  1
  Na  Na2  1  0.89827159  0.09078165  0.44800347  1
  Na  Na3  1  0.09078114  0.10172753  0.19800331  1
  I  I4  1  0.12242105  0.59061274  0.33220573  1
  I  I5  1  0.59061249  0.87758008  0.08220560  1
  I  I6  1  0.87758025  0.40938731  0.83220541  1
  I  I7  1  0.40938711  0.12242087  0.58220555  1
