# generated using pymatgen
data_LiBr
_symmetry_space_group_name_H-M   'P 1'
_cell_length_a   4.19092310
_cell_length_b   4.19092533
_cell_length_c   10.03538339
_cell_angle_alpha   89.99970360
_cell_angle_beta   90.00006934
_cell_angle_gamma   120.00121568
_symmetry_Int_Tables_number   1
_chemical_formula_structural   LiBr
_chemical_formula_sum   'Li3 Br3'
_cell_volume   152.64370384
_cell_formula_units_Z   3
loop_
 _symmetry_equiv_pos_site_id
 _symmetry_equiv_pos_as_xyz
  1  'x, y, z'
loop_
 _atom_site_type_symbol
 _atom_site_label
 _atom_site_symmetry_multiplicity
 _atom_site_fract_x
 _atom_site_fract_y
 _atom_site_fract_z
 _atom_site_occupancy
  Li  Li0  1  0.33101900  0.00065837  0.37595473  1
  Li  Li1  1  -0.00066968  0.33036623  0.04262442  1
  Li  Li2  1  0.66965108  0.66897022  0.70928950  1
  Br  Br3  1  0.00308005  0.33547253  0.78984351  1
  Br  Br4  1  0.66452363  0.66759399  0.45650778  1
  Br  Br5  1  0.33239591  -0.00306132  0.12317617  1
