# generated using pymatgen
data_NaBr
_symmetry_space_group_name_H-M   'P 1'
_cell_length_a   14.01841667
_cell_length_b   14.01834704
_cell_length_c   5.69966531
_cell_angle_alpha   90.00344103
_cell_angle_beta   89.99770062
_cell_angle_gamma   89.99754300
_symmetry_Int_Tables_number   1
_chemical_formula_structural   NaBr
_chemical_formula_sum   'Na16 Br16'
_cell_volume   1120.06989511
_cell_formula_units_Z   16
loop_
 _symmetry_equiv_pos_site_id
 _symmetry_equiv_pos_as_xyz
  1  'x, y, z'
loop_
 _atom_site_type_symbol
 _atom_site_label
 _atom_site_symmetry_multiplicity
 _atom_site_fract_x
 _atom_site_fract_y
 _atom_site_fract_z
 _atom_site_occupancy
  Na  Na0  1  0.11992705  0.06403945  0.73987538  1
  Na  Na1  1  0.43595938  0.61992080  0.76012659  1
  Na  Na2  1  0.11991523  0.56404954  0.51011913  1
  Na  Na3  1  0.88008534  0.93594964  0.73988492  1
  Na  Na4  1  0.56405180  0.38007592  0.76008613  1
  Na  Na5  1  0.93594873  0.61992451  0.98991092  1
  Na  Na6  1  0.06403999  0.38007901  0.98987028  1
  Na  Na7  1  0.43594735  0.11992356  0.48990898  1
  Na  Na8  1  0.56404125  0.88007966  0.48986829  1
  Na  Na9  1  0.38008510  0.43595019  0.23987739  1
  Na  Na10  1  0.06405216  0.88007603  0.26009357  1
  Na  Na11  1  0.61992715  0.56403911  0.23986803  1
  Na  Na12  1  0.93595930  0.11992055  0.26013444  1
  Na  Na13  1  0.61991435  0.06405053  0.01011799  1
  Na  Na14  1  0.38007333  0.93595997  0.01012717  1
  Na  Na15  1  0.88007242  0.43596151  0.51012917  1
  Br  Br16  1  0.86078687  0.92396497  0.23984069  1
  Br  Br17  1  0.57603992  0.36077735  0.26011378  1
  Br  Br18  1  0.86077713  0.42397371  0.01016278  1
  Br  Br19  1  0.13922229  0.07602777  0.23984159  1
  Br  Br20  1  0.42397169  0.63921795  0.26017614  1
  Br  Br21  1  0.07602732  0.36078151  0.48982172  1
  Br  Br22  1  0.92396090  0.63922294  0.48988422  1
  Br  Br23  1  0.57602961  0.86078246  0.98981988  1
  Br  Br24  1  0.42395871  0.13922190  0.98988198  1
  Br  Br25  1  0.63922246  0.57602717  0.73983464  1
  Br  Br26  1  0.92397122  0.13921796  0.76018275  1
  Br  Br27  1  0.36078654  0.42396507  0.73983436  1
  Br  Br28  1  0.07604065  0.86077793  0.76012062  1
  Br  Br29  1  0.36077814  0.92397146  0.51016122  1
  Br  Br30  1  0.63921291  0.07603595  0.51016165  1
  Br  Br31  1  0.13921368  0.57603390  0.01016362  1
