# generated using pymatgen
data_NaI
_symmetry_space_group_name_H-M   'P 1'
_cell_length_a   4.61337146
_cell_length_b   4.61344432
_cell_length_c   13.06887741
_cell_angle_alpha   89.99747002
_cell_angle_beta   89.99982042
_cell_angle_gamma   89.99929632
_symmetry_Int_Tables_number   1
_chemical_formula_structural   NaI
_chemical_formula_sum   'Na4 I4'
_cell_volume   278.15187483
_cell_formula_units_Z   4
loop_
 _symmetry_equiv_pos_site_id
 _symmetry_equiv_pos_as_xyz
  1  'x, y, z'
loop_
 _atom_site_type_symbol
 _atom_site_label
 _atom_site_symmetry_multiplicity
 _atom_site_fract_x
 _atom_site_fract_y
 _atom_site_fract_z
 _atom_site_occupancy
  Na  Na0  1  0.49896670  0.00079790  0.12206482  1
  Na  Na1  1  0.00084711  0.50100628  0.87208053  1
  Na  Na2  1  0.50101266  -0.00081670  0.62208922  1
  Na  Na3  1  -0.00083582  0.49895841  0.37211052  1
  I  I4  1  0.50048366  -0.00164586  0.37178092  1
  I  I5  1  -0.00167794  0.49953999  0.12177974  1
  I  I6  1  0.49953459  0.00167240  0.87178392  1
  I  I7  1  0.00166903  0.50048758  0.62178706  1
