# generated using pymatgen
data_LiBr
_symmetry_space_group_name_H-M   'P 1'
_cell_length_a   4.29011914
_cell_length_b   4.28982667
_cell_length_c   9.32440946
_cell_angle_alpha   90.00210239
_cell_angle_beta   89.99824433
_cell_angle_gamma   120.00452265
_symmetry_Int_Tables_number   1
_chemical_formula_structural   LiBr
_chemical_formula_sum   'Li3 Br3'
_cell_volume   148.60768627
_cell_formula_units_Z   3
loop_
 _symmetry_equiv_pos_site_id
 _symmetry_equiv_pos_as_xyz
  1  'x, y, z'
loop_
 _atom_site_type_symbol
 _atom_site_label
 _atom_site_symmetry_multiplicity
 _atom_site_fract_x
 _atom_site_fract_y
 _atom_site_fract_z
 _atom_site_occupancy
  Li  Li0  1  0.66794249  0.66665982  0.97572304  1
  Li  Li1  1  0.33337298  0.00129113  0.30973128  1
  Li  Li2  1  -0.00134868  0.33199834  0.64382251  1
  Br  Br3  1  0.00101349  0.33356887  0.91217263  1
  Br  Br4  1  0.66648300  0.66752563  0.24471952  1
  Br  Br5  1  0.33253672  0.99895621  0.57850530  1
