# generated using pymatgen
data_LiI
_symmetry_space_group_name_H-M   'P 1'
_cell_length_a   11.98378569
_cell_length_b   11.98378703
_cell_length_c   7.55275461
_cell_angle_alpha   89.99996967
_cell_angle_beta   89.99997401
_cell_angle_gamma   120.00465798
_symmetry_Int_Tables_number   1
_chemical_formula_structural   LiI
_chemical_formula_sum   'Li12 I12'
_cell_volume   939.29873275
_cell_formula_units_Z   12
loop_
 _symmetry_equiv_pos_site_id
 _symmetry_equiv_pos_as_xyz
  1  'x, y, z'
loop_
 _atom_site_type_symbol
 _atom_site_label
 _atom_site_symmetry_multiplicity
 _atom_site_fract_x
 _atom_site_fract_y
 _atom_site_fract_z
 _atom_site_occupancy
  Li  Li0  1  0.88084502  0.53121716  0.59971355  1
  Li  Li1  1  0.34961231  0.88086003  0.59972203  1
  Li  Li2  1  0.65037187  0.53122635  0.09969623  1
  Li  Li3  1  0.11914117  0.65038845  0.09972314  1
  Li  Li4  1  0.88085976  0.34961235  0.09972296  1
  Li  Li5  1  0.53121713  0.88084504  0.09971425  1
  Li  Li6  1  0.34962841  0.46877410  0.09969709  1
  Li  Li7  1  0.46878194  0.11915101  0.09970989  1
  Li  Li8  1  0.46877432  0.34962838  0.59969792  1
  Li  Li9  1  0.11915063  0.46878191  0.59970942  1
  Li  Li10  1  0.65038853  0.11914118  0.59972287  1
  Li  Li11  1  0.53122652  0.65037180  0.59969668  1
  I  I12  1  0.69032864  0.56443150  0.46272999  1
  I  I13  1  0.12588993  0.69031531  0.46273216  1
  I  I14  1  0.87409742  0.56441219  0.96273557  1
  I  I15  1  0.30968534  0.87410978  0.96273199  1
  I  I16  1  0.69031525  0.12589000  0.96273274  1
  I  I17  1  0.56443156  0.69032861  0.96273037  1
  I  I18  1  0.12590281  0.43558822  0.96273497  1
  I  I19  1  0.43556899  0.30967161  0.96273081  1
  I  I20  1  0.43558824  0.12590299  0.46273524  1
  I  I21  1  0.30967177  0.43556925  0.46273043  1
  I  I22  1  0.87410990  0.30968508  0.46273198  1
  I  I23  1  0.56441255  0.87409770  0.46273624  1
