# generated using pymatgen
data_LiI
_symmetry_space_group_name_H-M   'P 1'
_cell_length_a   9.00747551
_cell_length_b   9.00750448
_cell_length_c   7.35210192
_cell_angle_alpha   90.00002294
_cell_angle_beta   90.00013522
_cell_angle_gamma   89.99950694
_symmetry_Int_Tables_number   1
_chemical_formula_structural   LiI
_chemical_formula_sum   'Li8 I8'
_cell_volume   596.51187802
_cell_formula_units_Z   8
loop_
 _symmetry_equiv_pos_site_id
 _symmetry_equiv_pos_as_xyz
  1  'x, y, z'
loop_
 _atom_site_type_symbol
 _atom_site_label
 _atom_site_symmetry_multiplicity
 _atom_site_fract_x
 _atom_site_fract_y
 _atom_site_fract_z
 _atom_site_occupancy
  Li  Li0  1  0.36623984  0.36099638  0.65265119  1
  Li  Li1  1  0.13903722  0.13374134  0.15265557  1
  Li  Li2  1  0.13373321  0.86097656  0.65262771  1
  Li  Li3  1  0.86098043  0.86625337  0.15262205  1
  Li  Li4  1  0.86625425  0.13903324  0.65265698  1
  Li  Li5  1  0.63374536  0.63900156  0.65263123  1
  Li  Li6  1  0.36101582  0.63375932  0.15261211  1
  Li  Li7  1  0.63900151  0.36624103  0.15265275  1
  I  I8  1  0.33863572  0.65605915  0.77608188  1
  I  I9  1  0.84396260  0.16137450  0.27609024  1
  I  I10  1  0.16137827  0.15603499  0.77609123  1
  I  I11  1  0.15604210  0.83861575  0.27606497  1
  I  I12  1  0.83861221  0.84396488  0.77606764  1
  I  I13  1  0.66135188  0.34394540  0.77609987  1
  I  I14  1  0.65606598  0.66134921  0.27607073  1
  I  I15  1  0.34394361  0.33865331  0.27609243  1
