# generated using pymatgen
data_LiI
_symmetry_space_group_name_H-M   'P 1'
_cell_length_a   12.88236538
_cell_length_b   12.88136256
_cell_length_c   12.88101171
_cell_angle_alpha   89.98999605
_cell_angle_beta   89.99915420
_cell_angle_gamma   90.00644048
_symmetry_Int_Tables_number   1
_chemical_formula_structural   LiI
_chemical_formula_sum   'Li24 I24'
_cell_volume   2137.50619770
_cell_formula_units_Z   24
loop_
 _symmetry_equiv_pos_site_id
 _symmetry_equiv_pos_as_xyz
  1  'x, y, z'
loop_
 _atom_site_type_symbol
 _atom_site_label
 _atom_site_symmetry_multiplicity
 _atom_site_fract_x
 _atom_site_fract_y
 _atom_site_fract_z
 _atom_site_occupancy
  Li  Li0  1  0.27568242  0.38162325  0.07396090  1
  Li  Li1  1  0.27569015  0.61838286  0.92606708  1
  Li  Li2  1  0.42602779  0.22432874  0.88162821  1
  Li  Li3  1  0.07397554  0.72430854  0.61836567  1
  Li  Li4  1  0.38163003  0.92603242  0.72432024  1
  Li  Li5  1  0.07395001  0.27569301  0.38161308  1
  Li  Li6  1  0.92601660  0.27567076  0.61836527  1
  Li  Li7  1  0.92603154  0.72432809  0.38162620  1
  Li  Li8  1  0.61838235  0.07394407  0.72431543  1
  Li  Li9  1  0.38164035  0.07398437  0.27568041  1
  Li  Li10  1  0.61839287  0.92604485  0.27568515  1
  Li  Li11  1  0.72431135  0.38162660  0.92603026  1
  Li  Li12  1  0.72432667  0.61837346  0.07397978  1
  Li  Li13  1  0.57394403  0.77569110  0.88162064  1
  Li  Li14  1  0.42600762  0.77566960  0.11835461  1
  Li  Li15  1  0.57396887  0.22430260  0.11836920  1
  Li  Li16  1  0.88163759  0.42602687  0.22431821  1
  Li  Li17  1  0.11838159  0.57393646  0.22431196  1
  Li  Li18  1  0.88164753  0.57398227  0.77567811  1
  Li  Li19  1  0.11838139  0.42603622  0.77568341  1
  Li  Li20  1  0.22431401  0.88163059  0.42602623  1
  Li  Li21  1  0.22432494  0.11837429  0.57397068  1
  Li  Li22  1  0.77567272  0.88163418  0.57395764  1
  Li  Li23  1  0.77569109  0.11837252  0.42605904  1
  I  I24  1  0.41261543  0.13802410  0.68454624  1
  I  I25  1  0.41262659  0.86198339  0.31545943  1
  I  I26  1  0.81543574  0.08734485  0.63802408  1
  I  I27  1  0.68457872  0.58733758  0.86196996  1
  I  I28  1  0.13802554  0.31543977  0.58736151  1
  I  I29  1  0.68457521  0.41268102  0.13801000  1
  I  I30  1  0.31544670  0.41262641  0.86197006  1
  I  I31  1  0.31544500  0.58736567  0.13802427  1
  I  I32  1  0.86200294  0.68455291  0.58735824  1
  I  I33  1  0.13804733  0.68459408  0.41268295  1
  I  I34  1  0.86197520  0.31543121  0.41266983  1
  I  I35  1  0.58733010  0.13803803  0.31541499  1
  I  I36  1  0.58734212  0.86195530  0.68456907  1
  I  I37  1  0.18456769  0.91266858  0.63800471  1
  I  I38  1  0.81543246  0.91264493  0.36197052  1
  I  I39  1  0.18458808  0.08731938  0.36196677  1
  I  I40  1  0.63802864  0.81542948  0.08734253  1
  I  I41  1  0.36200291  0.18456213  0.08733943  1
  I  I42  1  0.63804597  0.18458983  0.91267058  1
  I  I43  1  0.36197442  0.81541608  0.91268899  1
  I  I44  1  0.08731112  0.63803904  0.81540415  1
  I  I45  1  0.08732468  0.36195374  0.18458039  1
  I  I46  1  0.91260371  0.63801858  0.18454115  1
  I  I47  1  0.91264464  0.36198618  0.81544273  1
