# generated using pymatgen
data_LiBr
_symmetry_space_group_name_H-M   'P 1'
_cell_length_a   10.04031355
_cell_length_b   10.03955994
_cell_length_c   8.44382999
_cell_angle_alpha   90.00005231
_cell_angle_beta   90.00003390
_cell_angle_gamma   90.00007456
_symmetry_Int_Tables_number   1
_chemical_formula_structural   LiBr
_chemical_formula_sum   'Li16 Br16'
_cell_volume   851.14084645
_cell_formula_units_Z   16
loop_
 _symmetry_equiv_pos_site_id
 _symmetry_equiv_pos_as_xyz
  1  'x, y, z'
loop_
 _atom_site_type_symbol
 _atom_site_label
 _atom_site_symmetry_multiplicity
 _atom_site_fract_x
 _atom_site_fract_y
 _atom_site_fract_z
 _atom_site_occupancy
  Li  Li0  1  0.16968297  0.49945654  0.76707737  1
  Li  Li1  1  0.99959068  0.16960417  0.01701761  1
  Li  Li2  1  0.83031611  0.49946212  0.26707843  1
  Li  Li3  1  0.83031741  0.50054416  0.76707800  1
  Li  Li4  1  0.00040941  0.83039573  0.01701932  1
  Li  Li5  1  0.50040471  0.66960496  0.01701941  1
  Li  Li6  1  0.49959458  0.33039513  0.01702080  1
  Li  Li7  1  0.00040618  0.16960525  0.51701908  1
  Li  Li8  1  0.99959321  0.83039470  0.51702105  1
  Li  Li9  1  0.33031669  0.00054366  0.26707838  1
  Li  Li10  1  0.50040701  0.33039354  0.51701884  1
  Li  Li11  1  0.66968283  0.99945626  0.26707704  1
  Li  Li12  1  0.49959324  0.66960513  0.51701875  1
  Li  Li13  1  0.33031777  0.99945904  0.76707797  1
  Li  Li14  1  0.66968218  0.00054029  0.76707770  1
  Li  Li15  1  0.16968401  0.50053841  0.26707759  1
  Br  Br16  1  0.99947530  0.30867085  0.76705934  1
  Br  Br17  1  0.80868022  0.99949440  0.01709061  1
  Br  Br18  1  0.00052284  0.30866972  0.26705948  1
  Br  Br19  1  0.00052530  0.69132979  0.76706087  1
  Br  Br20  1  0.19132025  0.00050588  0.01709090  1
  Br  Br21  1  0.69131949  0.49949566  0.01709193  1
  Br  Br22  1  0.30868046  0.50050425  0.01709175  1
  Br  Br23  1  0.19131975  0.99949507  0.51709181  1
  Br  Br24  1  0.80867946  0.00050550  0.51709137  1
  Br  Br25  1  0.50052489  0.19132882  0.26706031  1
  Br  Br26  1  0.69131950  0.50050468  0.51709092  1
  Br  Br27  1  0.49947526  0.80867076  0.26706001  1
  Br  Br28  1  0.30868083  0.49949518  0.51709054  1
  Br  Br29  1  0.50052371  0.80866995  0.76706004  1
  Br  Br30  1  0.49947614  0.19132967  0.76706087  1
  Br  Br31  1  0.99947758  0.69133072  0.26706101  1
