# generated using pymatgen
data_LiI
_symmetry_space_group_name_H-M   'P 1'
_cell_length_a   8.53012587
_cell_length_b   8.53012717
_cell_length_c   11.93940805
_cell_angle_alpha   89.99997820
_cell_angle_beta   89.99993047
_cell_angle_gamma   90.00004156
_symmetry_Int_Tables_number   1
_chemical_formula_structural   LiI
_chemical_formula_sum   'Li16 I16'
_cell_volume   868.74784575
_cell_formula_units_Z   16
loop_
 _symmetry_equiv_pos_site_id
 _symmetry_equiv_pos_as_xyz
  1  'x, y, z'
loop_
 _atom_site_type_symbol
 _atom_site_label
 _atom_site_symmetry_multiplicity
 _atom_site_fract_x
 _atom_site_fract_y
 _atom_site_fract_z
 _atom_site_occupancy
  Li  Li0  1  -0.00053425  0.24925266  0.76731322  1
  Li  Li1  1  0.74925186  -0.00053397  0.01731311  1
  Li  Li2  1  0.00053374  0.24925239  0.26731302  1
  Li  Li3  1  0.00053462  0.75074671  0.76731321  1
  Li  Li4  1  0.25074678  0.00053429  0.01731285  1
  Li  Li5  1  0.75074731  0.49946516  0.01731369  1
  Li  Li6  1  0.24925264  0.50053468  0.01731296  1
  Li  Li7  1  0.25074678  -0.00053510  0.51731357  1
  Li  Li8  1  0.74925243  0.00053412  0.51731321  1
  Li  Li9  1  0.50053517  0.25074723  0.26731321  1
  Li  Li10  1  0.75074750  0.50053461  0.51731301  1
  Li  Li11  1  0.49946535  0.74925390  0.26731354  1
  Li  Li12  1  0.24925355  0.49946514  0.51731318  1
  Li  Li13  1  0.50053415  0.74925261  0.76731292  1
  Li  Li14  1  0.49946623  0.25074769  0.76731335  1
  Li  Li15  1  -0.00053446  0.75074774  0.26731324  1
  I  I16  1  0.50015478  0.74978898  0.01725849  1
  I  I17  1  0.24978911  0.50015593  0.26725747  1
  I  I18  1  0.49984409  0.74978899  0.51725735  1
  I  I19  1  0.49984469  0.25021122  0.01725797  1
  I  I20  1  0.75021094  0.49984488  0.26725759  1
  I  I21  1  0.25021137  0.00015483  0.26725772  1
  I  I22  1  0.74978853  -0.00015502  0.26725777  1
  I  I23  1  0.75021170  0.50015482  0.76725863  1
  I  I24  1  0.24978849  0.49984436  0.76725757  1
  I  I25  1  -0.00015433  0.75021116  0.51725845  1
  I  I26  1  0.25021070  -0.00015499  0.76725804  1
  I  I27  1  0.00015573  0.24978868  0.51725800  1
  I  I28  1  0.74978945  0.00015549  0.76725787  1
  I  I29  1  -0.00015517  0.24978922  0.01725758  1
  I  I30  1  0.00015554  0.75021087  0.01725791  1
  I  I31  1  0.50015499  0.25021072  0.51725806  1
