# generated using pymatgen
data_NaI
_symmetry_space_group_name_H-M   'P 1'
_cell_length_a   9.16091468
_cell_length_b   9.16091074
_cell_length_c   4.73721054
_cell_angle_alpha   90.00069129
_cell_angle_beta   89.99940635
_cell_angle_gamma   90.00003678
_symmetry_Int_Tables_number   1
_chemical_formula_structural   NaI
_chemical_formula_sum   'Na4 I4'
_cell_volume   397.55770674
_cell_formula_units_Z   4
loop_
 _symmetry_equiv_pos_site_id
 _symmetry_equiv_pos_as_xyz
  1  'x, y, z'
loop_
 _atom_site_type_symbol
 _atom_site_label
 _atom_site_symmetry_multiplicity
 _atom_site_fract_x
 _atom_site_fract_y
 _atom_site_fract_z
 _atom_site_occupancy
  Na  Na0  1  0.40598445  0.16509216  0.24232677  1
  Na  Na1  1  0.16509162  0.59401800  -0.00768531  1
  Na  Na2  1  0.59402051  0.83490532  0.74229114  1
  Na  Na3  1  0.83490463  0.40598193  0.49230320  1
  I  I4  1  0.82600547  0.62948219  -0.00277091  1
  I  I5  1  0.62948273  0.17399226  0.74723831  1
  I  I6  1  0.17398993  0.37052025  0.49722629  1
  I  I7  1  0.37052065  0.82600788  0.24721722  1
