# generated using pymatgen
data_LiBr
_symmetry_space_group_name_H-M   'P 1'
_cell_length_a   5.55583930
_cell_length_b   5.55683267
_cell_length_c   5.37088493
_cell_angle_alpha   90.00000423
_cell_angle_beta   90.41208634
_cell_angle_gamma   90.00004099
_symmetry_Int_Tables_number   1
_chemical_formula_structural   LiBr
_chemical_formula_sum   'Li4 Br4'
_cell_volume   165.81033986
_cell_formula_units_Z   4
loop_
 _symmetry_equiv_pos_site_id
 _symmetry_equiv_pos_as_xyz
  1  'x, y, z'
loop_
 _atom_site_type_symbol
 _atom_site_label
 _atom_site_symmetry_multiplicity
 _atom_site_fract_x
 _atom_site_fract_y
 _atom_site_fract_z
 _atom_site_occupancy
  Li  Li0  1  0.74804051  0.00016628  0.24945824  1
  Li  Li1  1  0.25195761  0.50016809  0.25054616  1
  Li  Li2  1  0.25195918  -0.00016453  0.75054160  1
  Li  Li3  1  0.74804189  0.49983008  0.74945351  1
  Br  Br4  1  0.24986004  -0.00045818  0.24995821  1
  Br  Br5  1  0.75014008  0.49954280  0.25004161  1
  Br  Br6  1  0.75014035  0.00045728  0.75004213  1
  Br  Br7  1  0.24986033  0.50045818  0.74995855  1
