# generated using pymatgen
data_KBr
_symmetry_space_group_name_H-M   'P 1'
_cell_length_a   8.02656904
_cell_length_b   4.64493841
_cell_length_c   8.12549749
_cell_angle_alpha   89.99999595
_cell_angle_beta   89.99980930
_cell_angle_gamma   90.00001720
_symmetry_Int_Tables_number   1
_chemical_formula_structural   KBr
_chemical_formula_sum   'K4 Br4'
_cell_volume   302.94226312
_cell_formula_units_Z   4
loop_
 _symmetry_equiv_pos_site_id
 _symmetry_equiv_pos_as_xyz
  1  'x, y, z'
loop_
 _atom_site_type_symbol
 _atom_site_label
 _atom_site_symmetry_multiplicity
 _atom_site_fract_x
 _atom_site_fract_y
 _atom_site_fract_z
 _atom_site_occupancy
  K  K0  1  0.24975307  0.74787772  0.53411694  1
  K  K1  1  0.74975296  0.25212230  0.53411685  1
  K  K2  1  0.75024697  0.25212071  0.03411678  1
  K  K3  1  0.25024693  0.74787922  0.03411696  1
  Br  Br4  1  0.41630467  0.24829769  0.78404078  1
  Br  Br5  1  0.91630479  0.75170263  0.78404103  1
  Br  Br6  1  0.58369532  0.75170314  0.28403950  1
  Br  Br7  1  0.08369529  0.24829659  0.28403971  1
