# generated using pymatgen
data_LiBr
_symmetry_space_group_name_H-M   'P 1'
_cell_length_a   5.50242912
_cell_length_b   5.51876829
_cell_length_c   7.72848546
_cell_angle_alpha   90.00005191
_cell_angle_beta   134.77216033
_cell_angle_gamma   89.99963044
_symmetry_Int_Tables_number   1
_chemical_formula_structural   LiBr
_chemical_formula_sum   'Li4 Br4'
_cell_volume   166.60811783
_cell_formula_units_Z   4
loop_
 _symmetry_equiv_pos_site_id
 _symmetry_equiv_pos_as_xyz
  1  'x, y, z'
loop_
 _atom_site_type_symbol
 _atom_site_label
 _atom_site_symmetry_multiplicity
 _atom_site_fract_x
 _atom_site_fract_y
 _atom_site_fract_z
 _atom_site_occupancy
  Li  Li0  1  0.75209312  0.25150946  0.25091466  1
  Li  Li1  1  0.24791281  0.75150691  0.24908655  1
  Li  Li2  1  0.24790603  0.74849138  0.74908459  1
  Li  Li3  1  0.75208546  0.24849510  0.75091229  1
  Br  Br4  1  0.75068023  0.74993626  0.75045232  1
  Br  Br5  1  0.24932520  0.24993573  0.74954831  1
  Br  Br6  1  0.24932114  0.25006250  0.24954868  1
  Br  Br7  1  0.75067602  0.75006265  0.25045260  1
