# generated using pymatgen
data_LiBr
_symmetry_space_group_name_H-M   'P 1'
_cell_length_a   9.67407972
_cell_length_b   11.24384293
_cell_length_c   8.77032151
_cell_angle_alpha   89.99997969
_cell_angle_beta   89.99999720
_cell_angle_gamma   90.00002484
_symmetry_Int_Tables_number   1
_chemical_formula_structural   LiBr
_chemical_formula_sum   'Li16 Br16'
_cell_volume   953.98148576
_cell_formula_units_Z   16
loop_
 _symmetry_equiv_pos_site_id
 _symmetry_equiv_pos_as_xyz
  1  'x, y, z'
loop_
 _atom_site_type_symbol
 _atom_site_label
 _atom_site_symmetry_multiplicity
 _atom_site_fract_x
 _atom_site_fract_y
 _atom_site_fract_z
 _atom_site_occupancy
  Li  Li0  1  0.99980357  0.35454208  0.18664535  1
  Li  Li1  1  0.00019624  0.64545849  0.18664507  1
  Li  Li2  1  0.25019675  0.60454229  0.43664477  1
  Li  Li3  1  0.50019635  0.64545941  0.68664468  1
  Li  Li4  1  0.75019601  0.60454154  0.93664527  1
  Li  Li5  1  0.24980386  0.89545863  0.43664602  1
  Li  Li6  1  0.49980359  0.35454097  0.68664582  1
  Li  Li7  1  0.75019649  0.10454159  0.43664529  1
  Li  Li8  1  0.24980410  0.39545798  0.93664610  1
  Li  Li9  1  0.49980343  0.85454201  0.18664568  1
  Li  Li10  1  0.50019639  0.14545917  0.18664500  1
  Li  Li11  1  0.25019624  0.10454096  0.93664484  1
  Li  Li12  1  0.74980370  0.89545697  0.93664560  1
  Li  Li13  1  0.74980325  0.39545713  0.43664524  1
  Li  Li14  1  0.99980361  0.85454104  0.68664545  1
  Li  Li15  1  0.00019621  0.14545957  0.68664488  1
  Br  Br16  1  0.79637566  0.49999484  0.18660371  1
  Br  Br17  1  0.20362418  0.50000572  0.18660345  1
  Br  Br18  1  0.45362427  0.74999448  0.43660340  1
  Br  Br19  1  0.70362414  0.50000545  0.68660394  1
  Br  Br20  1  -0.04637547  0.74999448  0.93660360  1
  Br  Br21  1  0.04637610  0.75000500  0.43660398  1
  Br  Br22  1  0.29637597  0.49999439  0.68660391  1
  Br  Br23  1  -0.04637568  0.24999510  0.43660396  1
  Br  Br24  1  0.04637573  0.25000530  0.93660371  1
  Br  Br25  1  0.29637518  -0.00000512  0.18660400  1
  Br  Br26  1  0.70362473  0.00000513  0.18660415  1
  Br  Br27  1  0.45362476  0.24999431  0.93660390  1
  Br  Br28  1  0.54637514  0.75000542  0.93660382  1
  Br  Br29  1  0.54637569  0.25000558  0.43660344  1
  Br  Br30  1  0.79637569  -0.00000551  0.68660373  1
  Br  Br31  1  0.20362414  0.00000559  0.68660370  1
