# generated using pymatgen
data_NaI
_symmetry_space_group_name_H-M   'P 1'
_cell_length_a   6.52554544
_cell_length_b   5.41023640
_cell_length_c   9.54842558
_cell_angle_alpha   89.99593563
_cell_angle_beta   89.99713928
_cell_angle_gamma   90.00017686
_symmetry_Int_Tables_number   1
_chemical_formula_structural   NaI
_chemical_formula_sum   'Na4 I4'
_cell_volume   337.10471463
_cell_formula_units_Z   4
loop_
 _symmetry_equiv_pos_site_id
 _symmetry_equiv_pos_as_xyz
  1  'x, y, z'
loop_
 _atom_site_type_symbol
 _atom_site_label
 _atom_site_symmetry_multiplicity
 _atom_site_fract_x
 _atom_site_fract_y
 _atom_site_fract_z
 _atom_site_occupancy
  Na  Na0  1  0.24969754  0.72163252  0.16346314  1
  Na  Na1  1  0.75029841  0.22155962  0.33710069  1
  Na  Na2  1  0.25042923  0.27845251  0.66251223  1
  Na  Na3  1  0.74955770  0.77838013  0.83693948  1
  I  I4  1  0.24992782  0.77826043  0.83455464  1
  I  I5  1  0.75007588  0.27821526  0.66544267  1
  I  I6  1  0.24998609  0.22177370  0.33442614  1
  I  I7  1  0.75002733  0.72172584  0.16556102  1
