# generated using pymatgen
data_LiBr
_symmetry_space_group_name_H-M   'P 1'
_cell_length_a   3.97855671
_cell_length_b   3.97864150
_cell_length_c   12.75883492
_cell_angle_alpha   90.00249486
_cell_angle_beta   90.00125648
_cell_angle_gamma   90.00030639
_symmetry_Int_Tables_number   1
_chemical_formula_structural   LiBr
_chemical_formula_sum   'Li4 Br4'
_cell_volume   201.96279844
_cell_formula_units_Z   4
loop_
 _symmetry_equiv_pos_site_id
 _symmetry_equiv_pos_as_xyz
  1  'x, y, z'
loop_
 _atom_site_type_symbol
 _atom_site_label
 _atom_site_symmetry_multiplicity
 _atom_site_fract_x
 _atom_site_fract_y
 _atom_site_fract_z
 _atom_site_occupancy
  Li  Li0  1  0.00109794  0.00249913  0.78398004  1
  Li  Li1  1  0.00251133  0.99894987  0.53398617  1
  Li  Li2  1  0.99892271  0.99741444  0.28398639  1
  Li  Li3  1  0.99742923  0.00112571  0.03398252  1
  Br  Br4  1  -0.00004955  0.50146832  0.90916554  1
  Br  Br5  1  0.50146290  0.00008313  0.65916305  1
  Br  Br6  1  0.00010393  0.49852783  0.40915853  1
  Br  Br7  1  0.49852152  -0.00006842  0.15916163  1
