# generated using pymatgen
data_LiBr
_symmetry_space_group_name_H-M   'P 1'
_cell_length_a   7.12295973
_cell_length_b   3.75813160
_cell_length_c   6.52412149
_cell_angle_alpha   90.00017236
_cell_angle_beta   90.00042844
_cell_angle_gamma   90.00000502
_symmetry_Int_Tables_number   1
_chemical_formula_structural   LiBr
_chemical_formula_sum   'Li4 Br4'
_cell_volume   174.64433892
_cell_formula_units_Z   4
loop_
 _symmetry_equiv_pos_site_id
 _symmetry_equiv_pos_as_xyz
  1  'x, y, z'
loop_
 _atom_site_type_symbol
 _atom_site_label
 _atom_site_symmetry_multiplicity
 _atom_site_fract_x
 _atom_site_fract_y
 _atom_site_fract_z
 _atom_site_occupancy
  Li  Li0  1  0.19437217  0.75117652  0.38814273  1
  Li  Li1  1  0.69436752  0.24882426  0.38814816  1
  Li  Li2  1  0.80563347  0.24882433  0.88814724  1
  Li  Li3  1  0.30562889  0.75117691  0.88814236  1
  Br  Br4  1  0.61352481  0.74830157  0.10330069  1
  Br  Br5  1  0.11352579  0.25169737  0.10329753  1
  Br  Br6  1  0.38647330  0.25169467  0.60329620  1
  Br  Br7  1  0.88647405  0.74830437  0.60329892  1
