# generated using pymatgen
data_NaI
_symmetry_space_group_name_H-M   'P 1'
_cell_length_a   9.22339999
_cell_length_b   6.52718697
_cell_length_c   4.62712587
_cell_angle_alpha   89.99994904
_cell_angle_beta   90.00009152
_cell_angle_gamma   90.00001887
_symmetry_Int_Tables_number   1
_chemical_formula_structural   NaI
_chemical_formula_sum   'Na4 I4'
_cell_volume   278.56619352
_cell_formula_units_Z   4
loop_
 _symmetry_equiv_pos_site_id
 _symmetry_equiv_pos_as_xyz
  1  'x, y, z'
loop_
 _atom_site_type_symbol
 _atom_site_label
 _atom_site_symmetry_multiplicity
 _atom_site_fract_x
 _atom_site_fract_y
 _atom_site_fract_z
 _atom_site_occupancy
  Na  Na0  1  0.87640422  0.74914104  0.16484056  1
  Na  Na1  1  0.37640390  0.75085865  0.16483476  1
  Na  Na2  1  0.12359602  0.25085914  0.66484099  1
  Na  Na3  1  0.62359587  0.24914110  0.66484572  1
  I  I4  1  0.12580789  0.75044496  0.66423449  1
  I  I5  1  0.62580867  0.74955508  0.66423978  1
  I  I6  1  0.87419165  0.24955529  0.16423809  1
  I  I7  1  0.37419178  0.25044473  0.16423413  1
