# generated using pymatgen
data_LiBr
_symmetry_space_group_name_H-M   'P 1'
_cell_length_a   7.79541508
_cell_length_b   7.79541394
_cell_length_c   10.99665466
_cell_angle_alpha   90.00000068
_cell_angle_beta   89.99999083
_cell_angle_gamma   90.00000888
_symmetry_Int_Tables_number   1
_chemical_formula_structural   LiBr
_chemical_formula_sum   'Li16 Br16'
_cell_volume   668.25007053
_cell_formula_units_Z   16
loop_
 _symmetry_equiv_pos_site_id
 _symmetry_equiv_pos_as_xyz
  1  'x, y, z'
loop_
 _atom_site_type_symbol
 _atom_site_label
 _atom_site_symmetry_multiplicity
 _atom_site_fract_x
 _atom_site_fract_y
 _atom_site_fract_z
 _atom_site_occupancy
  Li  Li0  1  0.50082580  0.25133299  0.58533836  1
  Li  Li1  1  0.75133287  0.50082607  0.83533829  1
  Li  Li2  1  0.49917367  0.25133145  0.08533851  1
  Li  Li3  1  0.49917396  0.74866922  0.58533988  1
  Li  Li4  1  0.24866937  0.49917374  0.83533982  1
  Li  Li5  1  0.74866889  0.00082626  0.83533999  1
  Li  Li6  1  0.25133272  -0.00082551  0.83533945  1
  Li  Li7  1  0.24866784  0.50082575  0.33533966  1
  Li  Li8  1  0.75133161  0.49917274  0.33533844  1
  Li  Li9  1  -0.00082541  0.24866783  0.08533972  1
  Li  Li10  1  0.74866590  -0.00082644  0.33533897  1
  Li  Li11  1  0.00082652  0.75133214  0.08533862  1
  Li  Li12  1  0.25133027  0.00082563  0.33534007  1
  Li  Li13  1  -0.00082632  0.75133295  0.58533841  1
  Li  Li14  1  0.00082590  0.24866902  0.58534016  1
  Li  Li15  1  0.50082611  0.74866711  0.08533917  1
  Br  Br16  1  0.75016171  0.50027162  0.58609582  1
  Br  Br17  1  0.00027204  0.75016184  0.83609592  1
  Br  Br18  1  0.24983888  0.50027140  0.08609597  1
  Br  Br19  1  0.24983853  0.49972849  0.58609608  1
  Br  Br20  1  -0.00027115  0.24983873  0.83609620  1
  Br  Br21  1  0.49972880  0.25016176  0.83609585  1
  Br  Br22  1  0.50027169  0.74983838  0.83609599  1
  Br  Br23  1  -0.00027202  0.75016137  0.33609582  1
  Br  Br24  1  0.00027146  0.24983813  0.33609600  1
  Br  Br25  1  0.74983819  -0.00027202  0.08609585  1
  Br  Br26  1  0.49972778  0.74983800  0.33609605  1
  Br  Br27  1  0.25016174  0.00027158  0.08609599  1
  Br  Br28  1  0.50027128  0.25016131  0.33609585  1
  Br  Br29  1  0.74983808  0.00027175  0.58609609  1
  Br  Br30  1  0.25016138  -0.00027116  0.58609613  1
  Br  Br31  1  0.75016194  0.49972792  0.08609575  1
