# generated using pymatgen
data_LiBr
_symmetry_space_group_name_H-M   'P 1'
_cell_length_a   10.26117571
_cell_length_b   10.26066795
_cell_length_c   12.52482788
_cell_angle_alpha   90.00318327
_cell_angle_beta   90.00012047
_cell_angle_gamma   120.02480131
_symmetry_Int_Tables_number   1
_chemical_formula_structural   LiBr
_chemical_formula_sum   'Li18 Br18'
_cell_volume   1141.73828634
_cell_formula_units_Z   18
loop_
 _symmetry_equiv_pos_site_id
 _symmetry_equiv_pos_as_xyz
  1  'x, y, z'
loop_
 _atom_site_type_symbol
 _atom_site_label
 _atom_site_symmetry_multiplicity
 _atom_site_fract_x
 _atom_site_fract_y
 _atom_site_fract_z
 _atom_site_occupancy
  Li  Li0  1  0.33331606  0.41598706  0.91665235  1
  Li  Li1  1  0.58397438  0.66676589  0.41677224  1
  Li  Li2  1  0.66668557  0.58401927  0.08335225  1
  Li  Li3  1  0.08263469  0.66668488  0.91667145  1
  Li  Li4  1  0.08277245  0.41600716  0.41673710  1
  Li  Li5  1  0.41593211  0.08263542  0.08330709  1
  Li  Li6  1  0.25077095  0.25070116  0.25005449  1
  Li  Li7  1  0.58407120  0.91737090  0.91669078  1
  Li  Li8  1  0.91736753  0.33331888  0.08332695  1
  Li  Li9  1  0.74922971  0.74929660  0.74994910  1
  Li  Li10  1  0.91722365  0.58398795  0.58326037  1
  Li  Li11  1  0.74928327  0.00005171  0.25003671  1
  Li  Li12  1  0.25071922  -0.00005166  0.74995982  1
  Li  Li13  1  0.41602123  0.33323064  0.58323248  1
  Li  Li14  1  -0.00005730  0.74926430  0.24999579  1
  Li  Li15  1  0.00005775  0.25073375  0.75000188  1
  Li  Li16  1  0.33322884  0.91716538  0.41677463  1
  Li  Li17  1  0.66676639  0.08283149  0.58322238  1
  Br  Br18  1  0.41795633  0.08453482  0.58328732  1
  Br  Br19  1  -0.00014446  0.75106646  0.75008470  1
  Br  Br20  1  0.58204037  0.91546223  0.41670902  1
  Br  Br21  1  0.66660862  0.58208549  0.58322589  1
  Br  Br22  1  0.75111693  0.00010777  0.74999005  1
  Br  Br23  1  0.08441573  0.66653567  0.41666411  1
  Br  Br24  1  0.58220328  0.66673191  0.91666561  1
  Br  Br25  1  0.91558230  0.33346220  0.58333533  1
  Br  Br26  1  0.33338443  0.41791051  0.41677868  1
  Br  Br27  1  0.41780100  0.33327384  0.08333907  1
  Br  Br28  1  0.24888463  -0.00011006  0.25000653  1
  Br  Br29  1  0.33334239  0.91544964  0.91654975  1
  Br  Br30  1  0.66666094  0.08455429  0.08344901  1
  Br  Br31  1  0.00014513  0.24893313  0.24991301  1
  Br  Br32  1  0.08461237  0.41790526  0.91664119  1
  Br  Br33  1  0.91538979  0.58209868  0.08335600  1
  Br  Br34  1  0.24891391  0.24879049  0.75001807  1
  Br  Br35  1  0.75108861  0.75120692  0.24998878  1
