# generated using pymatgen
data_NaI
_symmetry_space_group_name_H-M   'P 1'
_cell_length_a   7.88503363
_cell_length_b   4.56717412
_cell_length_c   7.73390364
_cell_angle_alpha   90.00031728
_cell_angle_beta   89.99998304
_cell_angle_gamma   90.00000541
_symmetry_Int_Tables_number   1
_chemical_formula_structural   NaI
_chemical_formula_sum   'Na4 I4'
_cell_volume   278.51582451
_cell_formula_units_Z   4
loop_
 _symmetry_equiv_pos_site_id
 _symmetry_equiv_pos_as_xyz
  1  'x, y, z'
loop_
 _atom_site_type_symbol
 _atom_site_label
 _atom_site_symmetry_multiplicity
 _atom_site_fract_x
 _atom_site_fract_y
 _atom_site_fract_z
 _atom_site_occupancy
  Na  Na0  1  0.74912081  0.74875720  0.89333852  1
  Na  Na1  1  0.24912001  0.25124171  0.89334277  1
  Na  Na2  1  0.25087977  0.25124153  0.39334236  1
  Na  Na3  1  0.75087895  0.74875750  0.39333811  1
  I  I4  1  0.08358878  0.74943428  0.64433638  1
  I  I5  1  0.58358792  0.25056678  0.64433611  1
  I  I6  1  0.91641229  0.25056624  0.14433609  1
  I  I7  1  0.41641147  0.74943476  0.14433638  1
