# generated using pymatgen
data_LiBr
_symmetry_space_group_name_H-M   'P 1'
_cell_length_a   3.96256070
_cell_length_b   3.95561346
_cell_length_c   12.96298637
_cell_angle_alpha   90.00000672
_cell_angle_beta   89.99996848
_cell_angle_gamma   89.91989666
_symmetry_Int_Tables_number   1
_chemical_formula_structural   LiBr
_chemical_formula_sum   'Li4 Br4'
_cell_volume   203.18629596
_cell_formula_units_Z   4
loop_
 _symmetry_equiv_pos_site_id
 _symmetry_equiv_pos_as_xyz
  1  'x, y, z'
loop_
 _atom_site_type_symbol
 _atom_site_label
 _atom_site_symmetry_multiplicity
 _atom_site_fract_x
 _atom_site_fract_y
 _atom_site_fract_z
 _atom_site_occupancy
  Li  Li0  1  0.50660236  0.49384173  0.81459272  1
  Li  Li1  1  0.49396710  0.49318843  0.06464690  1
  Li  Li2  1  0.49339843  0.50615816  0.31459502  1
  Li  Li3  1  0.50603323  0.50681137  0.56464728  1
  Br  Br4  1  0.49084669  0.00594778  0.43970617  1
  Br  Br5  1  0.00570782  0.50897167  0.68977566  1
  Br  Br6  1  0.50915315  -0.00594739  0.93970821  1
  Br  Br7  1  -0.00570877  0.49102826  0.18977465  1
