# generated using pymatgen
data_KI
_symmetry_space_group_name_H-M   'P 1'
_cell_length_a   7.18938268
_cell_length_b   10.12352881
_cell_length_c   5.09211009
_cell_angle_alpha   89.99998344
_cell_angle_beta   89.99897031
_cell_angle_gamma   89.99837948
_symmetry_Int_Tables_number   1
_chemical_formula_structural   KI
_chemical_formula_sum   'K4 I4'
_cell_volume   370.61356260
_cell_formula_units_Z   4
loop_
 _symmetry_equiv_pos_site_id
 _symmetry_equiv_pos_as_xyz
  1  'x, y, z'
loop_
 _atom_site_type_symbol
 _atom_site_label
 _atom_site_symmetry_multiplicity
 _atom_site_fract_x
 _atom_site_fract_y
 _atom_site_fract_z
 _atom_site_occupancy
  K  K0  1  0.00015735  0.12687387  0.74962712  1
  K  K1  1  -0.00015660  0.62687388  0.75038069  1
  K  K2  1  0.49984263  0.87312615  0.24961923  1
  K  K3  1  0.50015662  0.37312611  0.25037286  1
  I  I4  1  0.99896893  0.87635913  0.25026815  1
  I  I5  1  0.00103120  0.37635928  0.24973929  1
  I  I6  1  0.50103111  0.12364082  0.75026069  1
  I  I7  1  0.49896877  0.62364076  0.74973196  1
