# generated using pymatgen
data_Na2O2
_symmetry_space_group_name_H-M   'P 1'
_cell_length_a   4.07329016
_cell_length_b   4.07398062
_cell_length_c   7.06439013
_cell_angle_alpha   89.99960286
_cell_angle_beta   125.17484656
_cell_angle_gamma   89.99992176
_symmetry_Int_Tables_number   1
_chemical_formula_structural   Na2O2
_chemical_formula_sum   'Na4 O4'
_cell_volume   95.82360109
_cell_formula_units_Z   2
loop_
 _symmetry_equiv_pos_site_id
 _symmetry_equiv_pos_as_xyz
  1  'x, y, z'
loop_
 _atom_site_type_symbol
 _atom_site_label
 _atom_site_symmetry_multiplicity
 _atom_site_fract_x
 _atom_site_fract_y
 _atom_site_fract_z
 _atom_site_occupancy
  Na  Na0  1  0.38761569  0.75030908  0.59283498  1
  Na  Na1  1  0.88757859  0.25030804  0.59280286  1
  Na  Na2  1  0.38755125  0.24969306  0.09283366  1
  Na  Na3  1  0.88758481  0.74969290  0.09286624  1
  O  O4  1  0.63774309  0.75059724  0.34255754  1
  O  O5  1  0.13774697  0.25059037  0.34256214  1
  O  O6  1  0.63775320  0.24940969  0.84255962  1
  O  O7  1  0.13774863  0.74939962  0.84255595  1
