# generated using pymatgen
data_NaCl
_symmetry_space_group_name_H-M   'P 1'
_cell_length_a   11.69621214
_cell_length_b   11.69621826
_cell_length_c   7.49722983
_cell_angle_alpha   90.00250218
_cell_angle_beta   89.99750287
_cell_angle_gamma   120.02611446
_symmetry_Int_Tables_number   1
_chemical_formula_structural   NaCl
_chemical_formula_sum   'Na18 Cl18'
_cell_volume   887.98946437
_cell_formula_units_Z   18
loop_
 _symmetry_equiv_pos_site_id
 _symmetry_equiv_pos_as_xyz
  1  'x, y, z'
loop_
 _atom_site_type_symbol
 _atom_site_label
 _atom_site_symmetry_multiplicity
 _atom_site_fract_x
 _atom_site_fract_y
 _atom_site_fract_z
 _atom_site_occupancy
  Na  Na0  1  0.39059450  0.91399416  0.40434060  1
  Na  Na1  1  0.39056362  0.47663674  0.90427640  1
  Na  Na2  1  0.41930771  0.27605717  0.57064422  1
  Na  Na3  1  0.85682237  0.58072299  0.57060863  1
  Na  Na4  1  0.75252473  0.80979381  0.73768902  1
  Na  Na5  1  0.08596879  0.47652209  0.40431019  1
  Na  Na6  1  0.85670042  0.27609311  0.07055134  1
  Na  Na7  1  0.41927810  0.14317856  0.07060724  1
  Na  Na8  1  0.52336356  0.60943657  0.40427604  1
  Na  Na9  1  0.52347887  0.91403219  0.90431148  1
  Na  Na10  1  0.72394261  0.58069232  0.07064294  1
  Na  Na11  1  0.72390706  0.14329985  0.57055179  1
  Na  Na12  1  0.19009994  0.94271744  0.73764348  1
  Na  Na13  1  0.19020730  0.24747651  0.23769062  1
  Na  Na14  1  0.08600590  0.60940540  0.90434179  1
  Na  Na15  1  0.75254640  0.94268723  0.23772208  1
  Na  Na16  1  0.05731260  0.24745369  0.73772074  1
  Na  Na17  1  0.05728270  0.80990040  0.23764405  1
  Cl  Cl18  1  0.90153738  0.51225699  0.21446809  1
  Cl  Cl19  1  0.90154726  0.38927043  0.71443609  1
  Cl  Cl20  1  0.82104629  0.76514985  0.38114829  1
  Cl  Cl21  1  0.94409704  0.17893757  0.38113878  1
  Cl  Cl22  1  0.15444668  0.72258810  0.54785610  1
  Cl  Cl23  1  0.48775705  0.38928535  0.21445823  1
  Cl  Cl24  1  0.94411692  0.76514020  0.88112005  1
  Cl  Cl25  1  0.82106247  0.05590317  0.88113849  1
  Cl  Cl26  1  0.61072982  0.09845210  0.21443597  1
  Cl  Cl27  1  0.61071483  0.51224296  0.71445834  1
  Cl  Cl28  1  0.23484886  0.17895268  0.88114858  1
  Cl  Cl29  1  0.23485929  0.05588336  0.38112029  1
  Cl  Cl30  1  0.27742549  0.43183510  0.54783466  1
  Cl  Cl31  1  0.27741204  0.84555337  0.04785638  1
  Cl  Cl32  1  0.48774194  0.09846126  0.71446764  1
  Cl  Cl33  1  0.15442819  0.43184176  0.04786458  1
  Cl  Cl34  1  0.56815690  0.84557072  0.54786504  1
  Cl  Cl35  1  0.56816439  0.72257479  0.04783499  1
