# generated using pymatgen
data_KI
_symmetry_space_group_name_H-M   'P 1'
_cell_length_a   5.10564879
_cell_length_b   10.07528624
_cell_length_c   7.19413570
_cell_angle_alpha   90.00001348
_cell_angle_beta   89.99999958
_cell_angle_gamma   89.99978699
_symmetry_Int_Tables_number   1
_chemical_formula_structural   KI
_chemical_formula_sum   'K4 I4'
_cell_volume   370.07262104
_cell_formula_units_Z   4
loop_
 _symmetry_equiv_pos_site_id
 _symmetry_equiv_pos_as_xyz
  1  'x, y, z'
loop_
 _atom_site_type_symbol
 _atom_site_label
 _atom_site_symmetry_multiplicity
 _atom_site_fract_x
 _atom_site_fract_y
 _atom_site_fract_z
 _atom_site_occupancy
  K  K0  1  -0.00030237  0.62507207  0.24960612  1
  K  K1  1  0.00030213  0.12507209  0.25039426  1
  K  K2  1  0.50030230  0.37492802  0.74960569  1
  K  K3  1  0.49969778  0.87492781  0.75039397  1
  I  I4  1  0.50059275  0.87546168  0.25073257  1
  I  I5  1  0.49940741  0.37546146  0.24926713  1
  I  I6  1  -0.00059265  0.12453844  0.75073278  1
  I  I7  1  0.00059264  0.62453845  0.74926748  1
