# generated using pymatgen
data_NaI
_symmetry_space_group_name_H-M   'P 1'
_cell_length_a   14.12345443
_cell_length_b   13.21835040
_cell_length_c   10.17024343
_cell_angle_alpha   90.00002605
_cell_angle_beta   89.99900930
_cell_angle_gamma   89.99772326
_symmetry_Int_Tables_number   1
_chemical_formula_structural   NaI
_chemical_formula_sum   'Na16 I16'
_cell_volume   1898.67022859
_cell_formula_units_Z   16
loop_
 _symmetry_equiv_pos_site_id
 _symmetry_equiv_pos_as_xyz
  1  'x, y, z'
loop_
 _atom_site_type_symbol
 _atom_site_label
 _atom_site_symmetry_multiplicity
 _atom_site_fract_x
 _atom_site_fract_y
 _atom_site_fract_z
 _atom_site_occupancy
  Na  Na0  1  0.60267587  0.25103188  0.35611750  1
  Na  Na1  1  0.39732415  0.74897119  0.35613983  1
  Na  Na2  1  0.64732109  0.50102742  0.60614516  1
  Na  Na3  1  0.89732455  0.74897179  0.85614017  1
  Na  Na4  1  0.14732064  0.50102791  0.10614473  1
  Na  Na5  1  0.85267342  -0.00103144  0.60611966  1
  Na  Na6  1  0.10267666  0.25103172  0.85611752  1
  Na  Na7  1  0.14732092  0.00102721  0.60614522  1
  Na  Na8  1  0.85267345  0.49896799  0.10611944  1
  Na  Na9  1  0.10267640  0.75103186  0.35611778  1
  Na  Na10  1  0.89732490  0.24897162  0.35614003  1
  Na  Na11  1  0.64732107  0.00102765  0.10614502  1
  Na  Na12  1  0.35267328  -0.00103174  0.10611965  1
  Na  Na13  1  0.35267293  0.49896863  0.60611955  1
  Na  Na14  1  0.60267602  0.75103179  0.85611761  1
  Na  Na15  1  0.39732409  0.24897106  0.85613955  1
  I  I16  1  0.50077837  0.82326279  0.10724174  1
  I  I17  1  0.49921913  0.17673413  0.10724646  1
  I  I18  1  0.74921095  0.07326655  0.35725051  1
  I  I19  1  -0.00078036  0.17673407  0.60724685  1
  I  I20  1  0.24921041  0.07326541  0.85725086  1
  I  I21  1  0.75079696  0.42673775  0.35725569  1
  I  I22  1  0.00077851  0.82326273  0.60724144  1
  I  I23  1  0.24921030  0.57326572  0.35725065  1
  I  I24  1  0.75079668  0.92673796  0.85725553  1
  I  I25  1  0.00077881  0.32326261  0.10724141  1
  I  I26  1  -0.00078086  0.67673433  0.10724736  1
  I  I27  1  0.74921094  0.57326633  0.85725075  1
  I  I28  1  0.25079674  0.42673797  0.85725571  1
  I  I29  1  0.25079665  0.92673794  0.35725556  1
  I  I30  1  0.50077814  0.32326303  0.60724155  1
  I  I31  1  0.49921919  0.67673413  0.60724672  1
