# generated using pymatgen
data_KI
_symmetry_space_group_name_H-M   'P 1'
_cell_length_a   7.18499276
_cell_length_b   10.09941608
_cell_length_c   5.10422562
_cell_angle_alpha   89.99982989
_cell_angle_beta   89.99936682
_cell_angle_gamma   89.99980294
_symmetry_Int_Tables_number   1
_chemical_formula_structural   KI
_chemical_formula_sum   'K4 I4'
_cell_volume   370.38420884
_cell_formula_units_Z   4
loop_
 _symmetry_equiv_pos_site_id
 _symmetry_equiv_pos_as_xyz
  1  'x, y, z'
loop_
 _atom_site_type_symbol
 _atom_site_label
 _atom_site_symmetry_multiplicity
 _atom_site_fract_x
 _atom_site_fract_y
 _atom_site_fract_z
 _atom_site_occupancy
  K  K0  1  -0.00066557  0.87506310  0.25013094  1
  K  K1  1  0.00066554  0.37506287  0.24987218  1
  K  K2  1  0.50066563  0.12493719  0.75012782  1
  K  K3  1  0.49933444  0.62493684  0.74986905  1
  I  I4  1  -0.00053664  0.62511872  0.74888280  1
  I  I5  1  0.00053667  0.12511902  0.75112077  1
  I  I6  1  0.50053662  0.37488103  0.24887869  1
  I  I7  1  0.49946332  0.87488123  0.25111776  1
