# generated using pymatgen
data_LiBr
_symmetry_space_group_name_H-M   'P 1'
_cell_length_a   7.79394114
_cell_length_b   7.79179115
_cell_length_c   11.00421951
_cell_angle_alpha   90.00015291
_cell_angle_beta   90.00010673
_cell_angle_gamma   90.00018656
_symmetry_Int_Tables_number   1
_chemical_formula_structural   LiBr
_chemical_formula_sum   'Li16 Br16'
_cell_volume   668.27262369
_cell_formula_units_Z   16
loop_
 _symmetry_equiv_pos_site_id
 _symmetry_equiv_pos_as_xyz
  1  'x, y, z'
loop_
 _atom_site_type_symbol
 _atom_site_label
 _atom_site_symmetry_multiplicity
 _atom_site_fract_x
 _atom_site_fract_y
 _atom_site_fract_z
 _atom_site_occupancy
  Li  Li0  1  0.49958545  0.74921895  0.93573043  1
  Li  Li1  1  0.24902937  0.49982598  0.18554619  1
  Li  Li2  1  0.50041561  0.74921730  0.43573194  1
  Li  Li3  1  0.50041298  0.25077883  0.93573197  1
  Li  Li4  1  0.75098105  0.50017775  0.18554664  1
  Li  Li5  1  0.25098259  -0.00017259  0.18554873  1
  Li  Li6  1  0.74902541  0.00017257  0.18554799  1
  Li  Li7  1  0.75097877  0.49982435  0.68554812  1
  Li  Li8  1  0.24901921  0.50017411  0.68554752  1
  Li  Li9  1  0.00041353  0.75078415  0.43573225  1
  Li  Li10  1  0.25097652  0.00017494  0.68554667  1
  Li  Li11  1  -0.00041547  0.24921970  0.43573109  1
  Li  Li12  1  0.74902391  -0.00017208  0.68554760  1
  Li  Li13  1  0.00041355  0.24921563  0.93573285  1
  Li  Li14  1  -0.00041438  0.75077770  0.93573267  1
  Li  Li15  1  0.49958303  0.25078428  0.43573238  1
  Br  Br16  1  0.25026195  -0.00032292  0.93527846  1
  Br  Br17  1  0.49975112  0.25044257  0.18528308  1
  Br  Br18  1  0.74973906  -0.00031998  0.43527775  1
  Br  Br19  1  0.74973636  0.00031939  0.93527976  1
  Br  Br20  1  0.50025250  0.74955824  0.18528226  1
  Br  Br21  1  0.00025053  0.75044479  0.18528330  1
  Br  Br22  1  -0.00025143  0.24955558  0.18528408  1
  Br  Br23  1  0.50024769  0.25044280  0.68528352  1
  Br  Br24  1  0.49974782  0.74955690  0.68528431  1
  Br  Br25  1  0.24973606  0.50032073  0.43527971  1
  Br  Br26  1  0.00025052  0.24955635  0.68528256  1
  Br  Br27  1  0.75026202  0.49967799  0.43527870  1
  Br  Br28  1  -0.00025150  0.75044360  0.68528329  1
  Br  Br29  1  0.24973918  0.49967810  0.93527742  1
  Br  Br30  1  0.75025836  0.50032140  0.93527853  1
  Br  Br31  1  0.25025859  0.00032289  0.43527878  1
