# generated using pymatgen
data_LiBr
_symmetry_space_group_name_H-M   'P 1'
_cell_length_a   11.41472005
_cell_length_b   11.41478300
_cell_length_c   3.66726917
_cell_angle_alpha   89.99598824
_cell_angle_beta   90.00779719
_cell_angle_gamma   120.00198154
_symmetry_Int_Tables_number   1
_chemical_formula_structural   LiBr
_chemical_formula_sum   'Li9 Br9'
_cell_volume   413.80684229
_cell_formula_units_Z   9
loop_
 _symmetry_equiv_pos_site_id
 _symmetry_equiv_pos_as_xyz
  1  'x, y, z'
loop_
 _atom_site_type_symbol
 _atom_site_label
 _atom_site_symmetry_multiplicity
 _atom_site_fract_x
 _atom_site_fract_y
 _atom_site_fract_z
 _atom_site_occupancy
  Li  Li0  1  0.09927520  0.19948698  0.43134382  1
  Li  Li1  1  0.13385604  0.56640672  0.09766137  1
  Li  Li2  1  0.43255024  0.86614732  0.09768372  1
  Li  Li3  1  0.46715403  0.23312897  0.76418031  1
  Li  Li4  1  0.76597748  0.53284211  0.76419045  1
  Li  Li5  1  0.76685967  0.23401863  0.76420303  1
  Li  Li6  1  0.80051336  0.89978047  0.43133028  1
  Li  Li7  1  0.43358117  0.56744122  0.09766129  1
  Li  Li8  1  0.10020364  0.90072991  0.43133948  1
  Br  Br9  1  0.88182106  0.44053382  0.23833195  1
  Br  Br10  1  0.89283150  0.10796918  0.90510014  1
  Br  Br11  1  0.21514532  0.10717830  0.90503401  1
  Br  Br12  1  0.22611933  0.77460451  0.57178570  1
  Br  Br13  1  0.54848831  0.77388324  0.57170327  1
  Br  Br14  1  0.22540148  0.45151642  0.57177185  1
  Br  Br15  1  0.55947225  0.44128736  0.23838852  1
  Br  Br16  1  0.89203472  0.78485949  0.90509435  1
  Br  Br17  1  0.55871521  0.11818533  0.23839344  1
