# generated using pymatgen
data_KI
_symmetry_space_group_name_H-M   'P 1'
_cell_length_a   9.62234792
_cell_length_b   9.62234760
_cell_length_c   4.52510921
_cell_angle_alpha   89.99998607
_cell_angle_beta   89.99999088
_cell_angle_gamma   90.00000042
_symmetry_Int_Tables_number   1
_chemical_formula_structural   KI
_chemical_formula_sum   'K4 I4'
_cell_volume   418.97794453
_cell_formula_units_Z   4
loop_
 _symmetry_equiv_pos_site_id
 _symmetry_equiv_pos_as_xyz
  1  'x, y, z'
loop_
 _atom_site_type_symbol
 _atom_site_label
 _atom_site_symmetry_multiplicity
 _atom_site_fract_x
 _atom_site_fract_y
 _atom_site_fract_z
 _atom_site_occupancy
  K  K0  1  0.85323763  0.64615316  0.49972780  1
  K  K1  1  0.14676238  0.35384685  0.49972763  1
  K  K2  1  0.35384685  0.85323763  0.50027173  1
  K  K3  1  0.64615315  0.14676238  0.50027284  1
  I  I4  1  0.34367737  0.15508884  0.00066693  1
  I  I5  1  0.65632262  0.84491115  0.00066675  1
  I  I6  1  0.84491116  0.34367736  -0.00066654  1
  I  I7  1  0.15508883  0.65632264  -0.00066714  1
