# generated using pymatgen
data_LiI
_symmetry_space_group_name_H-M   'P 1'
_cell_length_a   5.13617483
_cell_length_b   7.13043719
_cell_length_c   8.96488211
_cell_angle_alpha   89.99737606
_cell_angle_beta   122.74828583
_cell_angle_gamma   90.00111056
_symmetry_Int_Tables_number   1
_chemical_formula_structural   LiI
_chemical_formula_sum   'Li4 I4'
_cell_volume   276.13727711
_cell_formula_units_Z   4
loop_
 _symmetry_equiv_pos_site_id
 _symmetry_equiv_pos_as_xyz
  1  'x, y, z'
loop_
 _atom_site_type_symbol
 _atom_site_label
 _atom_site_symmetry_multiplicity
 _atom_site_fract_x
 _atom_site_fract_y
 _atom_site_fract_z
 _atom_site_occupancy
  Li  Li0  1  0.38133778  0.18020549  0.63995772  1
  Li  Li1  1  0.88134887  0.68019876  0.63996423  1
  Li  Li2  1  0.61867682  0.18020106  0.36005001  1
  Li  Li3  1  0.11866969  0.68020066  0.36004852  1
  I  I4  1  0.03875301  0.06140350  0.27597804  1
  I  I5  1  0.53876315  0.56139366  0.27597588  1
  I  I6  1  0.96122869  0.06142687  0.72401494  1
  I  I7  1  0.46122198  0.56142643  0.72401067  1
