# generated using pymatgen
data_LiBr
_symmetry_space_group_name_H-M   'P 1'
_cell_length_a   7.45621941
_cell_length_b   7.45699563
_cell_length_c   10.14082590
_cell_angle_alpha   89.99996026
_cell_angle_beta   90.00004426
_cell_angle_gamma   120.06184368
_symmetry_Int_Tables_number   1
_chemical_formula_structural   LiBr
_chemical_formula_sum   'Li6 Br6'
_cell_volume   487.99519551
_cell_formula_units_Z   6
loop_
 _symmetry_equiv_pos_site_id
 _symmetry_equiv_pos_as_xyz
  1  'x, y, z'
loop_
 _atom_site_type_symbol
 _atom_site_label
 _atom_site_symmetry_multiplicity
 _atom_site_fract_x
 _atom_site_fract_y
 _atom_site_fract_z
 _atom_site_occupancy
  Li  Li0  1  0.64895563  0.36810866  0.30379105  1
  Li  Li1  1  0.28145371  0.64926224  0.47052135  1
  Li  Li2  1  0.71854617  0.35073770  0.97052229  1
  Li  Li3  1  0.36767917  0.71865351  0.13717050  1
  Li  Li4  1  0.63232030  0.28134613  0.63717102  1
  Li  Li5  1  0.35104590  0.63189298  0.80379061  1
  Br  Br6  1  0.54775476  0.45175011  0.80874971  1
  Br  Br7  1  0.09579784  0.54717755  0.97531076  1
  Br  Br8  1  0.90420206  0.45282633  0.47531266  1
  Br  Br9  1  0.45234043  0.90417659  0.64223360  1
  Br  Br10  1  0.54766378  0.09582328  0.14223496  1
  Br  Br11  1  0.45224024  0.54824493  0.30874852  1
