# generated using pymatgen
data_NaI
_symmetry_space_group_name_H-M   'P 1'
_cell_length_a   9.22492572
_cell_length_b   6.53322704
_cell_length_c   4.61415286
_cell_angle_alpha   90.00133261
_cell_angle_beta   89.99947467
_cell_angle_gamma   90.00479186
_symmetry_Int_Tables_number   1
_chemical_formula_structural   NaI
_chemical_formula_sum   'Na4 I4'
_cell_volume   278.08822815
_cell_formula_units_Z   4
loop_
 _symmetry_equiv_pos_site_id
 _symmetry_equiv_pos_as_xyz
  1  'x, y, z'
loop_
 _atom_site_type_symbol
 _atom_site_label
 _atom_site_symmetry_multiplicity
 _atom_site_fract_x
 _atom_site_fract_y
 _atom_site_fract_z
 _atom_site_occupancy
  Na  Na0  1  0.37491690  0.24882499  0.25266560  1
  Na  Na1  1  0.87491668  0.25117473  0.25266527  1
  Na  Na2  1  0.62508352  0.75117537  0.75265074  1
  Na  Na3  1  0.12508361  0.74882488  0.75265217  1
  I  I4  1  0.87469978  0.75063834  0.25292890  1
  I  I5  1  0.37469962  0.74936198  0.25292921  1
  I  I6  1  0.12530007  0.24936137  0.75296377  1
  I  I7  1  0.62529980  0.25063834  0.75296377  1
