# generated using pymatgen
data_LiBr
_symmetry_space_group_name_H-M   'P 1'
_cell_length_a   6.98752779
_cell_length_b   4.34115982
_cell_length_c   6.61692640
_cell_angle_alpha   90.00002587
_cell_angle_beta   89.99993396
_cell_angle_gamma   89.99999933
_symmetry_Int_Tables_number   1
_chemical_formula_structural   LiBr
_chemical_formula_sum   'Li4 Br4'
_cell_volume   200.71767912
_cell_formula_units_Z   4
loop_
 _symmetry_equiv_pos_site_id
 _symmetry_equiv_pos_as_xyz
  1  'x, y, z'
loop_
 _atom_site_type_symbol
 _atom_site_label
 _atom_site_symmetry_multiplicity
 _atom_site_fract_x
 _atom_site_fract_y
 _atom_site_fract_z
 _atom_site_occupancy
  Li  Li0  1  0.91706139  0.24977872  0.92285635  1
  Li  Li1  1  0.41706097  0.75022138  0.92285800  1
  Li  Li2  1  0.08293897  0.75022140  0.42285875  1
  Li  Li3  1  0.58293835  0.24977873  0.42285716  1
  Br  Br4  1  0.57252232  0.25012439  0.80667818  1
  Br  Br5  1  0.07252267  0.74987548  0.80667874  1
  Br  Br6  1  0.42747751  0.74987546  0.30667885  1
  Br  Br7  1  -0.07252220  0.25012444  0.30667832  1
