# generated using pymatgen
data_LiBr
_symmetry_space_group_name_H-M   'P 1'
_cell_length_a   6.75855009
_cell_length_b   4.31230522
_cell_length_c   8.36212064
_cell_angle_alpha   89.99994257
_cell_angle_beta   124.69484641
_cell_angle_gamma   90.00000951
_symmetry_Int_Tables_number   1
_chemical_formula_structural   LiBr
_chemical_formula_sum   'Li4 Br4'
_cell_volume   200.38002059
_cell_formula_units_Z   4
loop_
 _symmetry_equiv_pos_site_id
 _symmetry_equiv_pos_as_xyz
  1  'x, y, z'
loop_
 _atom_site_type_symbol
 _atom_site_label
 _atom_site_symmetry_multiplicity
 _atom_site_fract_x
 _atom_site_fract_y
 _atom_site_fract_z
 _atom_site_occupancy
  Li  Li0  1  0.79871421  0.49907039  0.88617234  1
  Li  Li1  1  0.29871378  -0.00092969  0.88617258  1
  Li  Li2  1  0.79870882  0.50092972  0.38617076  1
  Li  Li3  1  0.29870954  0.00092997  0.38617161  1
  Br  Br4  1  0.05592963  0.49927034  0.75662597  1
  Br  Br5  1  0.55592962  -0.00072984  0.75662642  1
  Br  Br6  1  0.05592771  0.50072958  0.25662776  1
  Br  Br7  1  0.55592756  0.00072953  0.25662772  1
