# generated using pymatgen
data_LiBr
_symmetry_space_group_name_H-M   'P 1'
_cell_length_a   7.02597346
_cell_length_b   4.25341270
_cell_length_c   6.79294850
_cell_angle_alpha   90.00235251
_cell_angle_beta   90.00260893
_cell_angle_gamma   90.00007384
_symmetry_Int_Tables_number   1
_chemical_formula_structural   LiBr
_chemical_formula_sum   'Li4 Br4'
_cell_volume   203.00295010
_cell_formula_units_Z   4
loop_
 _symmetry_equiv_pos_site_id
 _symmetry_equiv_pos_as_xyz
  1  'x, y, z'
loop_
 _atom_site_type_symbol
 _atom_site_label
 _atom_site_symmetry_multiplicity
 _atom_site_fract_x
 _atom_site_fract_y
 _atom_site_fract_z
 _atom_site_occupancy
  Li  Li0  1  0.58336319  0.75143137  0.74688404  1
  Li  Li1  1  0.08334116  0.24861039  0.74689376  1
  Li  Li2  1  0.41664989  0.24861553  0.24690431  1
  Li  Li3  1  0.91662668  0.75139777  0.24689083  1
  Br  Br4  1  0.07641063  0.25080633  0.37091475  1
  Br  Br5  1  0.57641883  0.74914963  0.37092185  1
  Br  Br6  1  -0.07640934  0.74915017  0.87092175  1
  Br  Br7  1  0.42359895  0.25083881  0.87091450  1
