# generated using pymatgen
data_NaI
_symmetry_space_group_name_H-M   'P 1'
_cell_length_a   4.55241150
_cell_length_b   7.89310151
_cell_length_c   11.95555452
_cell_angle_alpha   89.99964404
_cell_angle_beta   139.57243967
_cell_angle_gamma   89.99936728
_symmetry_Int_Tables_number   1
_chemical_formula_structural   NaI
_chemical_formula_sum   'Na4 I4'
_cell_volume   278.58621502
_cell_formula_units_Z   4
loop_
 _symmetry_equiv_pos_site_id
 _symmetry_equiv_pos_as_xyz
  1  'x, y, z'
loop_
 _atom_site_type_symbol
 _atom_site_label
 _atom_site_symmetry_multiplicity
 _atom_site_fract_x
 _atom_site_fract_y
 _atom_site_fract_z
 _atom_site_occupancy
  Na  Na0  1  0.24910063  0.24975788  0.50040995  1
  Na  Na1  1  0.75090140  0.74975937  -0.00040808  1
  Na  Na2  1  0.75089882  0.75024216  0.49958976  1
  Na  Na3  1  0.24909911  0.25024064  0.00040833  1
  I  I4  1  0.74993653  0.58311374  0.74968987  1
  I  I5  1  0.25007258  0.08311321  0.75031385  1
  I  I6  1  0.25006344  0.41688619  0.25031014  1
  I  I7  1  0.74992750  0.91688680  0.24968618  1
