# generated using pymatgen
data_NaI
_symmetry_space_group_name_H-M   'P 1'
_cell_length_a   9.52219603
_cell_length_b   5.44545524
_cell_length_c   6.52056395
_cell_angle_alpha   89.99999638
_cell_angle_beta   90.00002313
_cell_angle_gamma   89.99998765
_symmetry_Int_Tables_number   1
_chemical_formula_structural   NaI
_chemical_formula_sum   'Na4 I4'
_cell_volume   338.10879576
_cell_formula_units_Z   4
loop_
 _symmetry_equiv_pos_site_id
 _symmetry_equiv_pos_as_xyz
  1  'x, y, z'
loop_
 _atom_site_type_symbol
 _atom_site_label
 _atom_site_symmetry_multiplicity
 _atom_site_fract_x
 _atom_site_fract_y
 _atom_site_fract_z
 _atom_site_occupancy
  Na  Na0  1  0.41688569  0.75123011  0.34609078  1
  Na  Na1  1  0.91688603  0.24876980  0.34608895  1
  Na  Na2  1  0.58311396  0.24876984  0.84609216  1
  Na  Na3  1  0.08311432  0.75123027  0.84609394  1
  I  I4  1  0.58504887  0.25029745  0.34691492  1
  I  I5  1  0.08504885  0.74970234  0.34691668  1
  I  I6  1  0.41495114  0.74970240  0.84691507  1
  I  I7  1  0.91495113  0.25029780  0.84691330  1
