# generated using pymatgen
data_LiBr
_symmetry_space_group_name_H-M   'P 1'
_cell_length_a   4.19575147
_cell_length_b   7.36637283
_cell_length_c   6.56180785
_cell_angle_alpha   89.99989573
_cell_angle_beta   89.40673390
_cell_angle_gamma   89.99973009
_symmetry_Int_Tables_number   1
_chemical_formula_structural   LiBr
_chemical_formula_sum   'Li4 Br4'
_cell_volume   202.79800472
_cell_formula_units_Z   4
loop_
 _symmetry_equiv_pos_site_id
 _symmetry_equiv_pos_as_xyz
  1  'x, y, z'
loop_
 _atom_site_type_symbol
 _atom_site_label
 _atom_site_symmetry_multiplicity
 _atom_site_fract_x
 _atom_site_fract_y
 _atom_site_fract_z
 _atom_site_occupancy
  Li  Li0  1  0.13448338  0.83285501  0.68974742  1
  Li  Li1  1  0.63446172  0.33285790  0.68974581  1
  Li  Li2  1  0.13448589  0.16714470  0.18974746  1
  Li  Li3  1  0.63445948  0.66714223  0.18974616  1
  Br  Br4  1  0.63540370  0.66426292  0.57723721  1
  Br  Br5  1  0.13539023  0.16426253  0.57723659  1
  Br  Br6  1  0.63540394  0.33573726  0.07723710  1
  Br  Br7  1  0.13538602  0.83573747  0.07723652  1
