# generated using pymatgen
data_LiBr
_symmetry_space_group_name_H-M   'P 1'
_cell_length_a   6.65352132
_cell_length_b   4.56586742
_cell_length_c   6.42072755
_cell_angle_alpha   90.00008941
_cell_angle_beta   86.73162919
_cell_angle_gamma   90.00017945
_symmetry_Int_Tables_number   1
_chemical_formula_structural   LiBr
_chemical_formula_sum   'Li4 Br4'
_cell_volume   194.73863014
_cell_formula_units_Z   4
loop_
 _symmetry_equiv_pos_site_id
 _symmetry_equiv_pos_as_xyz
  1  'x, y, z'
loop_
 _atom_site_type_symbol
 _atom_site_label
 _atom_site_symmetry_multiplicity
 _atom_site_fract_x
 _atom_site_fract_y
 _atom_site_fract_z
 _atom_site_occupancy
  Li  Li0  1  0.25965479  0.74946016  0.97269254  1
  Li  Li1  1  0.75965502  0.24946011  0.97269219  1
  Li  Li2  1  0.25963528  0.25053873  0.47268716  1
  Li  Li3  1  0.75963508  0.75053894  0.47268642  1
  Br  Br4  1  0.88519580  0.25036530  0.59007141  1
  Br  Br5  1  0.38519588  0.75036533  0.59007178  1
  Br  Br6  1  0.88521493  0.74963570  0.09007491  1
  Br  Br7  1  0.38521509  0.24963572  0.09007523  1
