# generated using pymatgen
data_LiBr
_symmetry_space_group_name_H-M   'P 1'
_cell_length_a   11.11520159
_cell_length_b   9.35676184
_cell_length_c   8.91114064
_cell_angle_alpha   90.00002627
_cell_angle_beta   89.99985934
_cell_angle_gamma   89.93935298
_symmetry_Int_Tables_number   1
_chemical_formula_structural   LiBr
_chemical_formula_sum   'Li16 Br16'
_cell_volume   926.77855074
_cell_formula_units_Z   16
loop_
 _symmetry_equiv_pos_site_id
 _symmetry_equiv_pos_as_xyz
  1  'x, y, z'
loop_
 _atom_site_type_symbol
 _atom_site_label
 _atom_site_symmetry_multiplicity
 _atom_site_fract_x
 _atom_site_fract_y
 _atom_site_fract_z
 _atom_site_occupancy
  Li  Li0  1  0.60200928  0.25059026  0.51435802  1
  Li  Li1  1  0.39799363  0.74941061  0.51435853  1
  Li  Li2  1  0.64796045  0.50016767  0.76455195  1
  Li  Li3  1  0.89799163  0.74941015  0.01435838  1
  Li  Li4  1  0.14796179  0.50016915  0.26455170  1
  Li  Li5  1  0.85203801  -0.00017020  0.76455093  1
  Li  Li6  1  0.10200871  0.25059160  0.01435817  1
  Li  Li7  1  0.14795965  0.00016997  0.76455023  1
  Li  Li8  1  0.85203919  0.49982981  0.26455125  1
  Li  Li9  1  0.10200815  0.75059029  0.51435819  1
  Li  Li10  1  0.89799295  0.24940998  0.51435671  1
  Li  Li11  1  0.64795900  0.00016958  0.26455080  1
  Li  Li12  1  0.35203812  -0.00016959  0.26455102  1
  Li  Li13  1  0.35203892  0.49983076  0.76455138  1
  Li  Li14  1  0.60201099  0.75059041  0.01435808  1
  Li  Li15  1  0.39799174  0.24940893  0.01435564  1
  Br  Br16  1  0.50039448  0.29061861  0.76473650  1
  Br  Br17  1  0.49960707  0.70937980  0.76473819  1
  Br  Br18  1  0.74953066  0.54072150  0.01480751  1
  Br  Br19  1  -0.00039375  0.70937972  0.26473706  1
  Br  Br20  1  0.24953053  0.54072378  0.51480839  1
  Br  Br21  1  0.75046920  -0.04072072  0.01480752  1
  Br  Br22  1  0.00039513  0.29061920  0.26473732  1
  Br  Br23  1  0.24952935  0.04072182  0.01480733  1
  Br  Br24  1  0.75046975  0.45927771  0.51480671  1
  Br  Br25  1  0.00039387  0.79061898  0.76473694  1
  Br  Br26  1  -0.00039560  0.20938124  0.76473769  1
  Br  Br27  1  0.74953046  0.04072208  0.51480568  1
  Br  Br28  1  0.25046934  -0.04072223  0.51480651  1
  Br  Br29  1  0.25046957  0.45927882  0.01480561  1
  Br  Br30  1  0.50039357  0.79061858  0.26473547  1
  Br  Br31  1  0.49960416  0.20938172  0.26473809  1
