# generated using pymatgen
data_LiBr
_symmetry_space_group_name_H-M   'P 1'
_cell_length_a   6.60600419
_cell_length_b   6.60600641
_cell_length_c   3.95850081
_cell_angle_alpha   89.99659058
_cell_angle_beta   90.00376290
_cell_angle_gamma   120.00434716
_symmetry_Int_Tables_number   1
_chemical_formula_structural   LiBr
_chemical_formula_sum   'Li3 Br3'
_cell_volume   149.59606804
_cell_formula_units_Z   3
loop_
 _symmetry_equiv_pos_site_id
 _symmetry_equiv_pos_as_xyz
  1  'x, y, z'
loop_
 _atom_site_type_symbol
 _atom_site_label
 _atom_site_symmetry_multiplicity
 _atom_site_fract_x
 _atom_site_fract_y
 _atom_site_fract_z
 _atom_site_occupancy
  Li  Li0  1  -0.00014832  0.61036120  0.41955480  1
  Li  Li1  1  0.38962734  0.38949883  0.08624612  1
  Li  Li2  1  0.61049311  0.00011022  0.75294103  1
  Br  Br3  1  -0.00007050  0.35925188  0.91914450  1
  Br  Br4  1  0.64077342  0.64069020  0.58581472  1
  Br  Br5  1  0.35932494  0.00008768  0.25248651  1
