# generated using pymatgen
data_LiI
_symmetry_space_group_name_H-M   'P 1'
_cell_length_a   12.50130262
_cell_length_b   12.50105846
_cell_length_c   8.71113880
_cell_angle_alpha   90.00810102
_cell_angle_beta   89.99338959
_cell_angle_gamma   120.02625930
_symmetry_Int_Tables_number   1
_chemical_formula_structural   LiI
_chemical_formula_sum   'Li18 I18'
_cell_volume   1178.67110582
_cell_formula_units_Z   18
loop_
 _symmetry_equiv_pos_site_id
 _symmetry_equiv_pos_as_xyz
  1  'x, y, z'
loop_
 _atom_site_type_symbol
 _atom_site_label
 _atom_site_symmetry_multiplicity
 _atom_site_fract_x
 _atom_site_fract_y
 _atom_site_fract_z
 _atom_site_occupancy
  Li  Li0  1  0.79753270  0.59632572  0.10754092  1
  Li  Li1  1  0.79758103  0.20128673  0.60750175  1
  Li  Li2  1  0.73703869  0.86920754  0.27376490  1
  Li  Li3  1  0.13216114  0.26295420  0.27376516  1
  Li  Li4  1  0.07031747  0.53459235  0.44039161  1
  Li  Li5  1  0.40367376  0.20121101  0.10751307  1
  Li  Li6  1  0.13208433  0.86916165  0.77376202  1
  Li  Li7  1  0.73704621  0.86784319  0.77375625  1
  Li  Li8  1  0.79871300  0.20241949  0.10750332  1
  Li  Li9  1  0.79879044  0.59632779  0.60752084  1
  Li  Li10  1  0.13079515  0.26296390  0.77377446  1
  Li  Li11  1  0.13083949  0.86791698  0.27376299  1
  Li  Li12  1  0.46533662  0.53569093  0.44037183  1
  Li  Li13  1  0.46541109  -0.07031436  0.94039933  1
  Li  Li14  1  0.40367636  0.20246845  0.60753283  1
  Li  Li15  1  0.07031168  0.53573439  0.94040944  1
  Li  Li16  1  0.46426737  -0.07030626  0.44041937  1
  Li  Li17  1  0.46431091  0.53466411  0.94037054  1
  I  I18  1  0.88087151  0.76054056  0.84828572  1
  I  I19  1  0.88087433  0.12029883  0.34821695  1
  I  I20  1  0.57274260  0.78581477  0.01446023  1
  I  I21  1  0.21309724  0.42726238  0.01444471  1
  I  I22  1  0.90610213  0.45362793  0.18132592  1
  I  I23  1  0.23944790  0.12030235  0.84827165  1
  I  I24  1  0.21309084  0.78581735  0.51443001  1
  I  I25  1  0.57273378  0.78690170  0.51444846  1
  I  I26  1  0.87969860  0.11912395  0.84821839  1
  I  I27  1  0.87969521  0.76054942  0.34826547  1
  I  I28  1  0.21418088  0.42725288  0.51445715  1
  I  I29  1  0.21418148  0.78690729  0.01442959  1
  I  I30  1  0.54636653  0.45244596  0.18126089  1
  I  I31  1  0.54637216  0.09389894  0.68132412  1
  I  I32  1  0.23945561  0.11912611  0.34829280  1
  I  I33  1  0.90610445  0.45245510  0.68133816  1
  I  I34  1  0.54754375  0.09389396  0.18133414  1
  I  I35  1  0.54755355  0.45363270  0.68126067  1
