# generated using pymatgen
data_LiBr
_symmetry_space_group_name_H-M   'P 1'
_cell_length_a   6.99064625
_cell_length_b   4.27829665
_cell_length_c   6.77502494
_cell_angle_alpha   89.99999885
_cell_angle_beta   89.99969034
_cell_angle_gamma   90.00000079
_symmetry_Int_Tables_number   1
_chemical_formula_structural   LiBr
_chemical_formula_sum   'Li4 Br4'
_cell_volume   202.62784153
_cell_formula_units_Z   4
loop_
 _symmetry_equiv_pos_site_id
 _symmetry_equiv_pos_as_xyz
  1  'x, y, z'
loop_
 _atom_site_type_symbol
 _atom_site_label
 _atom_site_symmetry_multiplicity
 _atom_site_fract_x
 _atom_site_fract_y
 _atom_site_fract_z
 _atom_site_occupancy
  Li  Li0  1  0.33086849  -0.00226842  0.94394520  1
  Li  Li1  1  0.83086844  0.50226834  0.94394413  1
  Li  Li2  1  0.66913143  0.00227075  0.44394520  1
  Li  Li3  1  0.16913127  0.49772926  0.44394609  1
  Br  Br4  1  0.32681106  -0.00188529  0.32088281  1
  Br  Br5  1  0.82681111  0.50188538  0.32088215  1
  Br  Br6  1  0.67318906  0.00188516  0.82088091  1
  Br  Br7  1  0.17318914  0.49811481  0.82088147  1
