# generated using pymatgen
data_LiBr
_symmetry_space_group_name_H-M   'P 1'
_cell_length_a   6.69591368
_cell_length_b   3.86028724
_cell_length_c   6.41510568
_cell_angle_alpha   90.00000498
_cell_angle_beta   90.00000759
_cell_angle_gamma   90.00000507
_symmetry_Int_Tables_number   1
_chemical_formula_structural   LiBr
_chemical_formula_sum   'Li4 Br4'
_cell_volume   165.81861458
_cell_formula_units_Z   4
loop_
 _symmetry_equiv_pos_site_id
 _symmetry_equiv_pos_as_xyz
  1  'x, y, z'
loop_
 _atom_site_type_symbol
 _atom_site_label
 _atom_site_symmetry_multiplicity
 _atom_site_fract_x
 _atom_site_fract_y
 _atom_site_fract_z
 _atom_site_occupancy
  Li  Li0  1  0.75117393  0.74949034  0.14540997  1
  Li  Li1  1  0.25117403  0.25051054  0.14541163  1
  Li  Li2  1  0.24882589  0.25050993  0.64541118  1
  Li  Li3  1  0.74882625  0.74948979  0.64540939  1
  Br  Br4  1  0.58281924  0.24948621  0.39650603  1
  Br  Br5  1  0.08281910  0.75051362  0.39650602  1
  Br  Br6  1  0.41718098  0.75051352  0.89650595  1
  Br  Br7  1  0.91718058  0.24948606  0.89650603  1
