# generated using pymatgen
data_LiBr
_symmetry_space_group_name_H-M   'P 1'
_cell_length_a   10.41156124
_cell_length_b   10.41142615
_cell_length_c   7.74257300
_cell_angle_alpha   90.00077745
_cell_angle_beta   90.00057997
_cell_angle_gamma   90.00001388
_symmetry_Int_Tables_number   1
_chemical_formula_structural   LiBr
_chemical_formula_sum   'Li16 Br16'
_cell_volume   839.28872591
_cell_formula_units_Z   16
loop_
 _symmetry_equiv_pos_site_id
 _symmetry_equiv_pos_as_xyz
  1  'x, y, z'
loop_
 _atom_site_type_symbol
 _atom_site_label
 _atom_site_symmetry_multiplicity
 _atom_site_fract_x
 _atom_site_fract_y
 _atom_site_fract_z
 _atom_site_occupancy
  Li  Li0  1  0.99885559  0.83517985  0.51073814  1
  Li  Li1  1  0.33517024  0.99885509  0.76073992  1
  Li  Li2  1  0.00114563  0.83518140  0.01073947  1
  Li  Li3  1  0.00114542  0.16482010  0.51074852  1
  Li  Li4  1  0.66483091  0.00114284  0.76074724  1
  Li  Li5  1  0.16482590  0.49886018  0.76074716  1
  Li  Li6  1  0.83517245  0.50114166  0.76074157  1
  Li  Li7  1  0.66483228  0.99885654  0.26074787  1
  Li  Li8  1  0.33517065  0.00114369  0.26073983  1
  Li  Li9  1  0.50114335  0.66484293  0.01075064  1
  Li  Li10  1  0.16482602  0.50114223  0.26074750  1
  Li  Li11  1  0.49885402  0.33515498  0.01074099  1
  Li  Li12  1  0.83517162  0.49885827  0.26074051  1
  Li  Li13  1  0.50114399  0.33515597  0.51074184  1
  Li  Li14  1  0.49885576  0.66484409  0.51075059  1
  Li  Li15  1  0.99885690  0.16482135  0.01074784  1
  Br  Br16  1  0.31692991  0.50120273  0.01097451  1
  Br  Br17  1  0.00120110  0.31694344  0.26097455  1
  Br  Br18  1  0.68306771  0.50120102  0.51097045  1
  Br  Br19  1  0.68306638  0.49879542  0.01097073  1
  Br  Br20  1  -0.00120314  0.68305622  0.26096677  1
  Br  Br21  1  0.49880092  0.81691686  0.26097392  1
  Br  Br22  1  0.50120075  0.18308332  0.26096771  1
  Br  Br23  1  -0.00119973  0.31694490  0.76097325  1
  Br  Br24  1  0.00119869  0.68305755  0.76096729  1
  Br  Br25  1  0.18305984  -0.00120418  0.51096863  1
  Br  Br26  1  0.49879827  0.18308186  0.76096656  1
  Br  Br27  1  0.81694179  0.00120345  0.51097382  1
  Br  Br28  1  0.50120234  0.81691591  0.76097442  1
  Br  Br29  1  0.18306076  0.00120238  0.01096987  1
  Br  Br30  1  0.81694261  -0.00120064  0.01097398  1
  Br  Br31  1  0.31693106  0.49879858  0.51097318  1
