# generated using pymatgen
data_LiBr
_symmetry_space_group_name_H-M   'P 1'
_cell_length_a   10.04662272
_cell_length_b   10.04662277
_cell_length_c   8.44916297
_cell_angle_alpha   90.00000535
_cell_angle_beta   90.00001965
_cell_angle_gamma   90.00002330
_symmetry_Int_Tables_number   1
_chemical_formula_structural   LiBr
_chemical_formula_sum   'Li16 Br16'
_cell_volume   852.81312612
_cell_formula_units_Z   16
loop_
 _symmetry_equiv_pos_site_id
 _symmetry_equiv_pos_as_xyz
  1  'x, y, z'
loop_
 _atom_site_type_symbol
 _atom_site_label
 _atom_site_symmetry_multiplicity
 _atom_site_fract_x
 _atom_site_fract_y
 _atom_site_fract_z
 _atom_site_occupancy
  Li  Li0  1  0.99936876  0.33048049  0.79639366  1
  Li  Li1  1  0.83048040  0.99936859  0.04639336  1
  Li  Li2  1  0.00063040  0.33047957  0.29639305  1
  Li  Li3  1  0.00063140  0.66951947  0.79639316  1
  Li  Li4  1  0.16951935  0.00063107  0.04639332  1
  Li  Li5  1  0.66951964  0.49937020  0.04639343  1
  Li  Li6  1  0.33048069  0.50063016  0.04639344  1
  Li  Li7  1  0.16951986  0.99936926  0.54639303  1
  Li  Li8  1  0.83048036  0.00063088  0.54639308  1
  Li  Li9  1  0.50063216  0.16952037  0.29639324  1
  Li  Li10  1  0.66952017  0.50063360  0.54639303  1
  Li  Li11  1  0.49936809  0.83047992  0.29639381  1
  Li  Li12  1  0.33047951  0.49936622  0.54639314  1
  Li  Li13  1  0.50062999  0.83048050  0.79639269  1
  Li  Li14  1  0.49936976  0.16951946  0.79639291  1
  Li  Li15  1  0.99936946  0.66952020  0.29639337  1
  Br  Br16  1  0.50076404  0.30848053  0.54625497  1
  Br  Br17  1  0.80848023  0.50076237  0.79625504  1
  Br  Br18  1  0.49923887  0.30848008  0.04625430  1
  Br  Br19  1  0.49923566  0.69151935  0.54625473  1
  Br  Br20  1  0.19151993  0.49923763  0.79625507  1
  Br  Br21  1  0.69151993  0.00076139  0.79625432  1
  Br  Br22  1  0.30847985  0.99923857  0.79625472  1
  Br  Br23  1  0.19151956  0.50076111  0.29625409  1
  Br  Br24  1  0.80848032  0.49923871  0.29625449  1
  Br  Br25  1  0.99923767  0.19151962  0.04625433  1
  Br  Br26  1  0.69151979  0.99923753  0.29625459  1
  Br  Br27  1  0.00076210  0.80848003  0.04625456  1
  Br  Br28  1  0.30848043  0.00076271  0.29625465  1
  Br  Br29  1  0.99923803  0.80848025  0.54625497  1
  Br  Br30  1  0.00076219  0.19151986  0.54625481  1
  Br  Br31  1  0.50076140  0.69152028  0.04625427  1
