# generated using pymatgen
data_LiI
_symmetry_space_group_name_H-M   'P 1'
_cell_length_a   7.86781980
_cell_length_b   7.46308761
_cell_length_c   4.72462656
_cell_angle_alpha   89.99947005
_cell_angle_beta   89.99993497
_cell_angle_gamma   90.00001796
_symmetry_Int_Tables_number   1
_chemical_formula_structural   LiI
_chemical_formula_sum   'Li4 I4'
_cell_volume   277.42170183
_cell_formula_units_Z   4
loop_
 _symmetry_equiv_pos_site_id
 _symmetry_equiv_pos_as_xyz
  1  'x, y, z'
loop_
 _atom_site_type_symbol
 _atom_site_label
 _atom_site_symmetry_multiplicity
 _atom_site_fract_x
 _atom_site_fract_y
 _atom_site_fract_z
 _atom_site_occupancy
  Li  Li0  1  0.15037768  0.35522288  0.74964166  1
  Li  Li1  1  0.84962162  0.85522238  0.75035957  1
  Li  Li2  1  0.34962185  0.64477749  0.24963007  1
  Li  Li3  1  0.65037763  0.14477712  0.25036872  1
  I  I4  1  0.81903576  0.23145891  0.75009379  1
  I  I5  1  0.18096475  0.73145958  0.74990563  1
  I  I6  1  0.68096495  0.76854047  0.25009516  1
  I  I7  1  0.31903576  0.26854116  0.24990540  1
