# generated using pymatgen
data_LiBr
_symmetry_space_group_name_H-M   'P 1'
_cell_length_a   3.89398126
_cell_length_b   3.89978519
_cell_length_c   9.52808164
_cell_angle_alpha   90.02726806
_cell_angle_beta   89.82635565
_cell_angle_gamma   120.07285193
_symmetry_Int_Tables_number   1
_chemical_formula_structural   LiBr
_chemical_formula_sum   'Li3 Br3'
_cell_volume   125.21289239
_cell_formula_units_Z   3
loop_
 _symmetry_equiv_pos_site_id
 _symmetry_equiv_pos_as_xyz
  1  'x, y, z'
loop_
 _atom_site_type_symbol
 _atom_site_label
 _atom_site_symmetry_multiplicity
 _atom_site_fract_x
 _atom_site_fract_y
 _atom_site_fract_z
 _atom_site_occupancy
  Li  Li0  1  0.00222944  0.66878539  0.85842617  1
  Li  Li1  1  0.33116284  0.33353033  0.52520910  1
  Li  Li2  1  0.66609912  -0.00237566  0.19181141  1
  Br  Br3  1  0.33307958  0.33438871  0.02502648  1
  Br  Br4  1  0.66586947  -0.00117277  0.69181716  1
  Br  Br5  1  0.00155954  0.66684401  0.35864955  1
