# generated using pymatgen
data_LiI
_symmetry_space_group_name_H-M   'P 1'
_cell_length_a   8.50799835
_cell_length_b   8.50800162
_cell_length_c   12.04773959
_cell_angle_alpha   90.00000190
_cell_angle_beta   89.99971755
_cell_angle_gamma   89.99981777
_symmetry_Int_Tables_number   1
_chemical_formula_structural   LiI
_chemical_formula_sum   'Li16 I16'
_cell_volume   872.08844672
_cell_formula_units_Z   16
loop_
 _symmetry_equiv_pos_site_id
 _symmetry_equiv_pos_as_xyz
  1  'x, y, z'
loop_
 _atom_site_type_symbol
 _atom_site_label
 _atom_site_symmetry_multiplicity
 _atom_site_fract_x
 _atom_site_fract_y
 _atom_site_fract_z
 _atom_site_occupancy
  Li  Li0  1  0.49934982  0.25114053  0.29666864  1
  Li  Li1  1  0.75113845  0.49934928  0.54666604  1
  Li  Li2  1  0.50064847  0.25114070  0.79666895  1
  Li  Li3  1  0.50064793  0.74886175  0.29666480  1
  Li  Li4  1  0.24885998  0.50064831  0.54666771  1
  Li  Li5  1  0.74886141  -0.00064689  0.54667050  1
  Li  Li6  1  0.25113785  0.00064565  0.54666657  1
  Li  Li7  1  0.24886037  0.49935393  0.04666831  1
  Li  Li8  1  0.75113999  0.50064803  0.04666544  1
  Li  Li9  1  0.00064920  0.24885907  0.79666728  1
  Li  Li10  1  0.74886032  0.00064982  0.04666814  1
  Li  Li11  1  -0.00064904  0.75113923  0.79666899  1
  Li  Li12  1  0.25113950  -0.00064816  0.04666667  1
  Li  Li13  1  0.00064771  0.75113942  0.29666903  1
  Li  Li14  1  -0.00065063  0.24886127  0.29666740  1
  Li  Li15  1  0.49935125  0.74885838  0.79666523  1
  I  I16  1  -0.00017148  0.24997464  0.04835238  1
  I  I17  1  0.74997665  -0.00017251  0.29835406  1
  I  I18  1  0.00017205  0.24997310  0.54835134  1
  I  I19  1  0.00017494  0.75002637  0.04835306  1
  I  I20  1  0.25002443  0.00017108  0.29835276  1
  I  I21  1  0.75002453  0.49982774  0.29835296  1
  I  I22  1  0.24997630  0.50017451  0.29835249  1
  I  I23  1  0.25002531  -0.00017398  0.79835161  1
  I  I24  1  0.74997554  0.00017297  0.79835176  1
  I  I25  1  0.50017320  0.25002343  0.54835169  1
  I  I26  1  0.75002521  0.50017142  0.79835164  1
  I  I27  1  0.49982788  0.74997553  0.54835073  1
  I  I28  1  0.24997567  0.49982823  0.79835285  1
  I  I29  1  0.50017184  0.74997511  0.04835204  1
  I  I30  1  0.49982768  0.25002539  0.04835251  1
  I  I31  1  -0.00017233  0.75002668  0.54835111  1
