# generated using pymatgen
data_LiI
_symmetry_space_group_name_H-M   'P 1'
_cell_length_a   11.69454284
_cell_length_b   11.69453449
_cell_length_c   7.98345162
_cell_angle_alpha   90.00034128
_cell_angle_beta   89.99980796
_cell_angle_gamma   89.99996977
_symmetry_Int_Tables_number   1
_chemical_formula_structural   LiI
_chemical_formula_sum   'Li16 I16'
_cell_volume   1091.83468244
_cell_formula_units_Z   16
loop_
 _symmetry_equiv_pos_site_id
 _symmetry_equiv_pos_as_xyz
  1  'x, y, z'
loop_
 _atom_site_type_symbol
 _atom_site_label
 _atom_site_symmetry_multiplicity
 _atom_site_fract_x
 _atom_site_fract_y
 _atom_site_fract_z
 _atom_site_occupancy
  Li  Li0  1  0.45318033  0.62240396  0.38442191  1
  Li  Li1  1  0.12240388  0.45318181  0.63442363  1
  Li  Li2  1  0.54681858  0.62240368  0.88442235  1
  Li  Li3  1  0.54682061  0.37759596  0.38441807  1
  Li  Li4  1  0.87759411  0.54681817  0.63442219  1
  Li  Li5  1  0.37759697  0.95318053  0.63442856  1
  Li  Li6  1  0.62240482  0.04682035  0.63442532  1
  Li  Li7  1  0.87759739  0.45318110  0.13442969  1
  Li  Li8  1  0.12240494  0.54681999  0.13442347  1
  Li  Li9  1  0.04682020  0.87759588  0.88442068  1
  Li  Li10  1  0.37759460  0.04681917  0.13442368  1
  Li  Li11  1  0.95318051  0.12240458  0.88442261  1
  Li  Li12  1  0.62240398  0.95318138  0.13442541  1
  Li  Li13  1  0.04681851  0.12240293  0.38442592  1
  Li  Li14  1  0.95317983  0.87759451  0.38441696  1
  Li  Li15  1  0.45317964  0.37759480  0.88441492  1
  I  I16  1  0.03860765  0.66142923  0.43094969  1
  I  I17  1  0.16143171  0.03861028  0.68095307  1
  I  I18  1  0.96139246  0.66143051  0.93094930  1
  I  I19  1  0.96139055  0.33856874  0.43095454  1
  I  I20  1  0.83857115  0.96139148  0.68094777  1
  I  I21  1  0.33856897  0.53861064  0.68094833  1
  I  I22  1  0.66142846  0.46138958  0.68094915  1
  I  I23  1  0.83856950  0.03860948  0.18094891  1
  I  I24  1  0.16142926  0.96138982  0.18095225  1
  I  I25  1  0.46139086  0.83856934  0.93095471  1
  I  I26  1  0.33857090  0.46139055  0.18094685  1
  I  I27  1  0.53860835  0.16143002  0.93095168  1
  I  I28  1  0.66143169  0.53861076  0.18095004  1
  I  I29  1  0.46139236  0.16143056  0.43095138  1
  I  I30  1  0.53860873  0.83856971  0.43095387  1
  I  I31  1  0.03860848  0.33857050  0.93095309  1
