# generated using pymatgen
data_LiBr
_symmetry_space_group_name_H-M   'P 1'
_cell_length_a   6.78346815
_cell_length_b   8.44230514
_cell_length_c   7.36371248
_cell_angle_alpha   89.99847504
_cell_angle_beta   90.00006616
_cell_angle_gamma   90.00003671
_symmetry_Int_Tables_number   1
_chemical_formula_structural   LiBr
_chemical_formula_sum   'Li8 Br8'
_cell_volume   421.70588218
_cell_formula_units_Z   8
loop_
 _symmetry_equiv_pos_site_id
 _symmetry_equiv_pos_as_xyz
  1  'x, y, z'
loop_
 _atom_site_type_symbol
 _atom_site_label
 _atom_site_symmetry_multiplicity
 _atom_site_fract_x
 _atom_site_fract_y
 _atom_site_fract_z
 _atom_site_occupancy
  Li  Li0  1  0.16300525  0.63108232  0.58648720  1
  Li  Li1  1  0.16301257  0.86892105  0.08648032  1
  Li  Li2  1  0.66300585  0.86892332  0.41351717  1
  Li  Li3  1  0.33698087  0.36892121  0.08647430  1
  Li  Li4  1  0.83698598  0.13107970  0.91351983  1
  Li  Li5  1  0.33699200  0.13107669  0.58648390  1
  Li  Li6  1  0.66301855  0.63107718  0.91352395  1
  Li  Li7  1  0.83699529  0.36892057  0.41351183  1
  Br  Br8  1  0.71544913  0.12854088  0.58733067  1
  Br  Br9  1  0.71545415  0.37144716  0.08732543  1
  Br  Br10  1  0.21544830  0.37146137  0.41266585  1
  Br  Br11  1  0.78455612  0.87144800  0.08733131  1
  Br  Br12  1  0.28454594  0.62855053  0.91267529  1
  Br  Br13  1  0.78455200  0.62853804  0.58733416  1
  Br  Br14  1  0.21544549  0.12855133  0.91266952  1
  Br  Br15  1  0.28455251  0.87146065  0.41266926  1
