# generated using pymatgen
data_KI
_symmetry_space_group_name_H-M   'P 1'
_cell_length_a   9.32491923
_cell_length_b   6.65818372
_cell_length_c   7.11105417
_cell_angle_alpha   90.00001412
_cell_angle_beta   89.99998609
_cell_angle_gamma   89.99985508
_symmetry_Int_Tables_number   1
_chemical_formula_structural   KI
_chemical_formula_sum   'K4 I4'
_cell_volume   441.50420058
_cell_formula_units_Z   4
loop_
 _symmetry_equiv_pos_site_id
 _symmetry_equiv_pos_as_xyz
  1  'x, y, z'
loop_
 _atom_site_type_symbol
 _atom_site_label
 _atom_site_symmetry_multiplicity
 _atom_site_fract_x
 _atom_site_fract_y
 _atom_site_fract_z
 _atom_site_occupancy
  K  K0  1  -0.06722806  0.75057416  0.57879387  1
  K  K1  1  0.43277149  0.24942546  0.57879470  1
  K  K2  1  0.06722873  0.24942703  0.07879616  1
  K  K3  1  0.56722792  0.75057396  0.07879531  1
  I  I4  1  0.05590583  0.24998969  0.57796546  1
  I  I5  1  0.55590604  0.75001016  0.57796523  1
  I  I6  1  0.94409394  0.75000957  0.07796943  1
  I  I7  1  0.44409412  0.24998997  0.07797009  1
