# generated using pymatgen
data_LiI
_symmetry_space_group_name_H-M   'P 1'
_cell_length_a   7.79322627
_cell_length_b   7.79210302
_cell_length_c   9.41481401
_cell_angle_alpha   90.00013192
_cell_angle_beta   89.99987013
_cell_angle_gamma   119.99214947
_symmetry_Int_Tables_number   1
_chemical_formula_structural   LiI
_chemical_formula_sum   'Li6 I6'
_cell_volume   495.16358508
_cell_formula_units_Z   6
loop_
 _symmetry_equiv_pos_site_id
 _symmetry_equiv_pos_as_xyz
  1  'x, y, z'
loop_
 _atom_site_type_symbol
 _atom_site_label
 _atom_site_symmetry_multiplicity
 _atom_site_fract_x
 _atom_site_fract_y
 _atom_site_fract_z
 _atom_site_occupancy
  Li  Li0  1  0.21727820  0.60498713  0.83712982  1
  Li  Li1  1  0.61226716  0.21710737  0.67059028  1
  Li  Li2  1  0.38773654  0.78289288  0.17059109  1
  Li  Li3  1  0.60509344  0.38793226  0.00372262  1
  Li  Li4  1  0.39490227  0.61206352  0.50372242  1
  Li  Li5  1  0.78272191  0.39501801  0.33712927  1
  I  I6  1  0.00249882  0.50196246  0.58625898  1
  I  I7  1  0.50071458  0.00235157  0.41965196  1
  I  I8  1  0.49929738  -0.00235201  0.91965243  1
  I  I9  1  0.50200979  0.49954771  0.75285597  1
  I  I10  1  0.49797876  0.50044034  0.25285530  1
  I  I11  1  -0.00249886  0.49804875  0.08625895  1
