# generated using pymatgen
data_LiBr
_symmetry_space_group_name_H-M   'P 1'
_cell_length_a   14.50607761
_cell_length_b   14.50609064
_cell_length_c   3.98908012
_cell_angle_alpha   90.00012818
_cell_angle_beta   89.99989597
_cell_angle_gamma   89.99989888
_symmetry_Int_Tables_number   1
_chemical_formula_structural   LiBr
_chemical_formula_sum   'Li16 Br16'
_cell_volume   839.40807464
_cell_formula_units_Z   16
loop_
 _symmetry_equiv_pos_site_id
 _symmetry_equiv_pos_as_xyz
  1  'x, y, z'
loop_
 _atom_site_type_symbol
 _atom_site_label
 _atom_site_symmetry_multiplicity
 _atom_site_fract_x
 _atom_site_fract_y
 _atom_site_fract_z
 _atom_site_occupancy
  Li  Li0  1  0.33154207  0.91495428  0.46983550  1
  Li  Li1  1  0.58504665  0.83154295  0.03016882  1
  Li  Li2  1  0.33154353  0.41495287  0.78017108  1
  Li  Li3  1  0.66845797  0.08504594  0.46983547  1
  Li  Li4  1  0.41495423  0.16845758  0.03016041  1
  Li  Li5  1  0.08504531  0.83154211  0.71984128  1
  Li  Li6  1  0.91495389  0.16845808  0.71983596  1
  Li  Li7  1  0.58504563  0.33154198  0.21984014  1
  Li  Li8  1  0.41495362  0.66845697  0.21983159  1
  Li  Li9  1  0.16845642  0.58504695  -0.03016976  1
  Li  Li10  1  0.91495430  0.66845842  0.53015791  1
  Li  Li11  1  0.83154286  0.41495423  -0.03016730  1
  Li  Li12  1  0.08504628  0.33154195  0.53016407  1
  Li  Li13  1  0.83154203  0.91495401  0.28016351  1
  Li  Li14  1  0.16845797  0.08504603  0.28016515  1
  Li  Li15  1  0.66845728  0.58504606  0.78016661  1
  Br  Br16  1  0.91042571  0.33842894  0.48064000  1
  Br  Br17  1  0.16157138  0.41042604  0.01935904  1
  Br  Br18  1  0.91042534  0.83842823  0.76935996  1
  Br  Br19  1  0.08957498  0.66157168  0.48064044  1
  Br  Br20  1  0.83842906  0.58957473  0.01935578  1
  Br  Br21  1  0.66157109  0.41042493  0.73064285  1
  Br  Br22  1  0.33842844  0.58957370  0.73064130  1
  Br  Br23  1  0.16157101  0.91042559  0.23064319  1
  Br  Br24  1  0.83842829  0.08957379  0.23064123  1
  Br  Br25  1  0.58957512  0.16157164  -0.01936101  1
  Br  Br26  1  0.33842882  0.08957423  0.51935767  1
  Br  Br27  1  0.41042610  0.83842843  -0.01935760  1
  Br  Br28  1  0.66157169  0.91042656  0.51935827  1
  Br  Br29  1  0.41042524  0.33842840  0.26936112  1
  Br  Br30  1  0.58957377  0.66157114  0.26935906  1
  Br  Br31  1  0.08957391  0.16157159  0.76935827  1
