# generated using pymatgen
data_NaI
_symmetry_space_group_name_H-M   'P 1'
_cell_length_a   4.61773155
_cell_length_b   9.23761525
_cell_length_c   6.52901629
_cell_angle_alpha   90.00003111
_cell_angle_beta   90.00000100
_cell_angle_gamma   89.99999758
_symmetry_Int_Tables_number   1
_chemical_formula_structural   NaI
_chemical_formula_sum   'Na4 I4'
_cell_volume   278.50712104
_cell_formula_units_Z   4
loop_
 _symmetry_equiv_pos_site_id
 _symmetry_equiv_pos_as_xyz
  1  'x, y, z'
loop_
 _atom_site_type_symbol
 _atom_site_label
 _atom_site_symmetry_multiplicity
 _atom_site_fract_x
 _atom_site_fract_y
 _atom_site_fract_z
 _atom_site_occupancy
  Na  Na0  1  -0.00005677  0.37299395  0.25027735  1
  Na  Na1  1  0.00005694  0.87299395  0.24971285  1
  Na  Na2  1  0.50005654  0.62700601  0.75027360  1
  Na  Na3  1  0.49994323  0.12700602  0.74973620  1
  I  I4  1  0.00072246  0.37598691  0.75069627  1
  I  I5  1  -0.00072253  0.87598703  0.74930281  1
  I  I6  1  0.49927749  0.62401300  0.25068615  1
  I  I7  1  0.50072264  0.12401312  0.24931477  1
