# generated using pymatgen
data_NaI
_symmetry_space_group_name_H-M   'P 1'
_cell_length_a   7.83210659
_cell_length_b   4.60585971
_cell_length_c   7.73187078
_cell_angle_alpha   89.99972336
_cell_angle_beta   90.00004192
_cell_angle_gamma   90.00027900
_symmetry_Int_Tables_number   1
_chemical_formula_structural   NaI
_chemical_formula_sum   'Na4 I4'
_cell_volume   278.91629167
_cell_formula_units_Z   4
loop_
 _symmetry_equiv_pos_site_id
 _symmetry_equiv_pos_as_xyz
  1  'x, y, z'
loop_
 _atom_site_type_symbol
 _atom_site_label
 _atom_site_symmetry_multiplicity
 _atom_site_fract_x
 _atom_site_fract_y
 _atom_site_fract_z
 _atom_site_occupancy
  Na  Na0  1  0.25029827  0.24603384  0.22719846  1
  Na  Na1  1  0.75029610  0.75396501  0.22719315  1
  Na  Na2  1  0.74970447  0.75396370  0.72719752  1
  Na  Na3  1  0.24970253  0.24603532  0.72720316  1
  I  I4  1  0.08349876  -0.25239195  0.97709116  1
  I  I5  1  0.58349871  0.25239321  0.97708992  1
  I  I6  1  0.91650077  0.25239365  0.47708906  1
  I  I7  1  0.41650040  -0.25239279  0.47709116  1
