# generated using pymatgen
data_LiI
_symmetry_space_group_name_H-M   'P 1'
_cell_length_a   10.78961218
_cell_length_b   10.78109414
_cell_length_c   4.23799097
_cell_angle_alpha   90.00196909
_cell_angle_beta   90.00281505
_cell_angle_gamma   119.90676604
_symmetry_Int_Tables_number   1
_chemical_formula_structural   LiI
_chemical_formula_sum   'Li6 I6'
_cell_volume   427.33314361
_cell_formula_units_Z   6
loop_
 _symmetry_equiv_pos_site_id
 _symmetry_equiv_pos_as_xyz
  1  'x, y, z'
loop_
 _atom_site_type_symbol
 _atom_site_label
 _atom_site_symmetry_multiplicity
 _atom_site_fract_x
 _atom_site_fract_y
 _atom_site_fract_z
 _atom_site_occupancy
  Li  Li0  1  0.31631194  0.86275993  0.48536994  1
  Li  Li1  1  0.44754915  0.31525210  0.30107024  1
  Li  Li2  1  0.55245557  0.68474921  0.80109476  1
  Li  Li3  1  0.86665269  0.55067896  0.64254483  1
  Li  Li4  1  0.13332242  0.44930142  0.14240045  1
  Li  Li5  1  0.68368515  0.13722222  -0.01470710  1
  I  I6  1  0.13307842  0.70160163  0.97944719  1
  I  I7  1  0.43249377  0.13430990  0.79617678  1
  I  I8  1  0.56751575  0.86570243  0.29622753  1
  I  I9  1  0.70097176  0.56670858  0.13865757  1
  I  I10  1  0.29903405  0.43330605  0.63855438  1
  I  I11  1  0.86692932  0.29840757  0.47944721  1
