# generated using pymatgen
data_LiI
_symmetry_space_group_name_H-M   'P 1'
_cell_length_a   4.76702547
_cell_length_b   6.96459270
_cell_length_c   9.26753085
_cell_angle_alpha   90.00099163
_cell_angle_beta   120.51935392
_cell_angle_gamma   89.99819252
_symmetry_Int_Tables_number   1
_chemical_formula_structural   LiI
_chemical_formula_sum   'Li4 I4'
_cell_volume   265.05815939
_cell_formula_units_Z   4
loop_
 _symmetry_equiv_pos_site_id
 _symmetry_equiv_pos_as_xyz
  1  'x, y, z'
loop_
 _atom_site_type_symbol
 _atom_site_label
 _atom_site_symmetry_multiplicity
 _atom_site_fract_x
 _atom_site_fract_y
 _atom_site_fract_z
 _atom_site_occupancy
  Li  Li0  1  -0.18226265  0.83982646  0.31960618  1
  Li  Li1  1  0.18227120  0.33982645  0.18040077  1
  Li  Li2  1  0.18226295  0.16017341  0.68039451  1
  Li  Li3  1  -0.18227104  0.66017400  0.81959937  1
  I  I4  1  0.83536035  0.23942898  0.33619797  1
  I  I5  1  0.16465029  0.73942905  0.16379978  1
  I  I6  1  0.16463979  0.76057071  0.66380136  1
  I  I7  1  0.83534910  0.26057092  0.83620006  1
