# generated using pymatgen
data_KI
_symmetry_space_group_name_H-M   'P 1'
_cell_length_a   5.07714986
_cell_length_b   5.07714911
_cell_length_c   14.37850073
_cell_angle_alpha   90.00006478
_cell_angle_beta   90.00002984
_cell_angle_gamma   89.99992808
_symmetry_Int_Tables_number   1
_chemical_formula_structural   KI
_chemical_formula_sum   'K4 I4'
_cell_volume   370.64103855
_cell_formula_units_Z   4
loop_
 _symmetry_equiv_pos_site_id
 _symmetry_equiv_pos_as_xyz
  1  'x, y, z'
loop_
 _atom_site_type_symbol
 _atom_site_label
 _atom_site_symmetry_multiplicity
 _atom_site_fract_x
 _atom_site_fract_y
 _atom_site_fract_z
 _atom_site_occupancy
  K  K0  1  -0.00229316  0.49241310  0.39745201  1
  K  K1  1  0.49241308  0.00229361  0.14745179  1
  K  K2  1  0.00229371  0.50758675  0.89745185  1
  K  K3  1  0.50758649  -0.00229343  0.64745157  1
  I  I4  1  0.49771179  -0.00714305  0.39744067  1
  I  I5  1  -0.00714324  0.50228855  0.14744089  1
  I  I6  1  0.50228864  0.00714289  0.89744087  1
  I  I7  1  0.00714270  0.49771158  0.64744103  1
