# generated using pymatgen
data_LiI
_symmetry_space_group_name_H-M   'P 1'
_cell_length_a   10.40607428
_cell_length_b   7.01347376
_cell_length_c   7.04786084
_cell_angle_alpha   89.99987348
_cell_angle_beta   89.99996287
_cell_angle_gamma   89.99976757
_symmetry_Int_Tables_number   1
_chemical_formula_structural   LiI
_chemical_formula_sum   'Li8 I8'
_cell_volume   514.37211733
_cell_formula_units_Z   8
loop_
 _symmetry_equiv_pos_site_id
 _symmetry_equiv_pos_as_xyz
  1  'x, y, z'
loop_
 _atom_site_type_symbol
 _atom_site_label
 _atom_site_symmetry_multiplicity
 _atom_site_fract_x
 _atom_site_fract_y
 _atom_site_fract_z
 _atom_site_occupancy
  Li  Li0  1  0.86851574  0.84055120  0.47336686  1
  Li  Li1  1  0.36851660  0.15944024  -0.02662883  1
  Li  Li2  1  0.63148239  0.34055282  0.47337325  1
  Li  Li3  1  0.13148312  0.15944984  0.47336964  1
  Li  Li4  1  0.36851836  0.65944557  0.47337130  1
  Li  Li5  1  0.63148304  0.84056142  -0.02662823  1
  Li  Li6  1  0.13148374  0.65942922  -0.02663139  1
  Li  Li7  1  0.86851631  0.34056938  -0.02663173  1
  I  I8  1  0.62458196  0.73059698  0.35621273  1
  I  I9  1  0.12458093  0.26939911  0.85621489  1
  I  I10  1  0.87541583  0.23059655  0.35621386  1
  I  I11  1  0.37541805  0.26940226  0.35621369  1
  I  I12  1  0.12458415  0.76940268  0.35621404  1
  I  I13  1  0.87541908  0.73060355  0.85621424  1
  I  I14  1  0.37541791  0.76940132  0.85621558  1
  I  I15  1  0.62458281  0.23059785  0.85621640  1
