# generated using pymatgen
data_LiBr
_symmetry_space_group_name_H-M   'P 1'
_cell_length_a   7.52476566
_cell_length_b   13.69097817
_cell_length_c   3.78088779
_cell_angle_alpha   89.99991368
_cell_angle_beta   90.00006928
_cell_angle_gamma   89.99999843
_symmetry_Int_Tables_number   1
_chemical_formula_structural   LiBr
_chemical_formula_sum   'Li8 Br8'
_cell_volume   389.51236252
_cell_formula_units_Z   8
loop_
 _symmetry_equiv_pos_site_id
 _symmetry_equiv_pos_as_xyz
  1  'x, y, z'
loop_
 _atom_site_type_symbol
 _atom_site_label
 _atom_site_symmetry_multiplicity
 _atom_site_fract_x
 _atom_site_fract_y
 _atom_site_fract_z
 _atom_site_occupancy
  Li  Li0  1  0.12545861  0.41840599  0.74995069  1
  Li  Li1  1  0.12545801  0.08159416  0.24994846  1
  Li  Li2  1  0.62545772  0.08159385  0.25005040  1
  Li  Li3  1  0.37454187  0.58159331  0.24994658  1
  Li  Li4  1  0.87454143  0.91840658  0.75005351  1
  Li  Li5  1  0.37454140  0.91840647  0.74995143  1
  Li  Li6  1  0.62545883  0.41840617  0.75005146  1
  Li  Li7  1  0.87454214  0.58159330  0.25004748  1
  Br  Br8  1  0.12473513  0.89135118  0.24914158  1
  Br  Br9  1  0.12473658  0.60864893  0.74913848  1
  Br  Br10  1  0.62473658  0.60864915  -0.24914206  1
  Br  Br11  1  0.37526358  0.10864955  0.74914060  1
  Br  Br12  1  0.87526437  0.39135051  0.25085971  1
  Br  Br13  1  0.37526393  0.39135064  0.24914006  1
  Br  Br14  1  0.62473583  0.89135079  0.25086134  1
  Br  Br15  1  0.87526397  0.10864943  -0.24913974  1
