# generated using pymatgen
data_NaI
_symmetry_space_group_name_H-M   'P 1'
_cell_length_a   4.28480554
_cell_length_b   4.28737940
_cell_length_c   15.33753621
_cell_angle_alpha   89.99989184
_cell_angle_beta   90.00055474
_cell_angle_gamma   89.66321158
_symmetry_Int_Tables_number   1
_chemical_formula_structural   NaI
_chemical_formula_sum   'Na4 I4'
_cell_volume   281.75467603
_cell_formula_units_Z   4
loop_
 _symmetry_equiv_pos_site_id
 _symmetry_equiv_pos_as_xyz
  1  'x, y, z'
loop_
 _atom_site_type_symbol
 _atom_site_label
 _atom_site_symmetry_multiplicity
 _atom_site_fract_x
 _atom_site_fract_y
 _atom_site_fract_z
 _atom_site_occupancy
  Na  Na0  1  0.74843165  0.76282268  0.78997099  1
  Na  Na1  1  0.75835643  0.25192238  0.04342017  1
  Na  Na2  1  0.25156544  0.23716994  0.28993607  1
  Na  Na3  1  0.24164836  0.74809157  0.54341987  1
  I  I4  1  0.75605018  0.74026610  0.20542422  1
  I  I5  1  0.74298304  0.24443470  0.45540139  1
  I  I6  1  0.24395516  0.25972850  0.70541403  1
  I  I7  1  0.25700974  0.75556413  0.95539159  1
