# generated using pymatgen
data_LiBr
_symmetry_space_group_name_H-M   'P 1'
_cell_length_a   10.70823925
_cell_length_b   10.70824140
_cell_length_c   11.13028947
_cell_angle_alpha   90.00359222
_cell_angle_beta   89.99638087
_cell_angle_gamma   120.00451646
_symmetry_Int_Tables_number   1
_chemical_formula_structural   LiBr
_chemical_formula_sum   'Li18 Br18'
_cell_volume   1105.23223316
_cell_formula_units_Z   18
loop_
 _symmetry_equiv_pos_site_id
 _symmetry_equiv_pos_as_xyz
  1  'x, y, z'
loop_
 _atom_site_type_symbol
 _atom_site_label
 _atom_site_symmetry_multiplicity
 _atom_site_fract_x
 _atom_site_fract_y
 _atom_site_fract_z
 _atom_site_occupancy
  Li  Li0  1  0.08605818  0.66752135  0.71419696  1
  Li  Li1  1  0.08606063  0.41854493  0.21419274  1
  Li  Li2  1  0.66585059  0.58074580  0.88089428  1
  Li  Li3  1  0.91489619  0.33414891  0.88089300  1
  Li  Li4  1  0.99908108  0.75185483  0.04749191  1
  Li  Li5  1  0.33247449  0.41854120  0.71419987  1
  Li  Li6  1  0.91488563  0.58073890  0.38089580  1
  Li  Li7  1  0.66585102  0.08510184  0.38089320  1
  Li  Li8  1  0.58145416  0.91393830  0.71419278  1
  Li  Li9  1  0.58145816  0.66752571  0.21419962  1
  Li  Li10  1  0.41925437  0.33414985  0.38089459  1
  Li  Li11  1  0.41926159  0.08511423  0.88089603  1
  Li  Li12  1  0.24814270  0.24722032  0.04749427  1
  Li  Li13  1  0.24814567  0.00091907  0.54749181  1
  Li  Li14  1  0.33247836  0.91394193  0.21419714  1
  Li  Li15  1  0.99908483  0.24721756  0.54749003  1
  Li  Li16  1  0.75278308  0.00091526  0.04748983  1
  Li  Li17  1  0.75278044  0.75185795  0.54749411  1
  Br  Br18  1  0.89643130  0.56403609  0.88026942  1
  Br  Br19  1  0.89645549  0.33240118  0.38028005  1
  Br  Br20  1  0.76926197  0.77022356  0.04699736  1
  Br  Br21  1  0.00097244  0.23075915  0.04697722  1
  Br  Br22  1  0.10261232  0.66574614  0.21360605  1
  Br  Br23  1  0.43594485  0.33239255  0.88025334  1
  Br  Br24  1  0.00095737  0.77020181  0.54700743  1
  Br  Br25  1  0.76924100  -0.00097212  0.54697780  1
  Br  Br26  1  0.66759872  0.10354353  0.88027932  1
  Br  Br27  1  0.66760783  0.56405622  0.38025320  1
  Br  Br28  1  0.22977647  0.23073801  0.54699714  1
  Br  Br29  1  0.22979834  -0.00095709  0.04700724  1
  Br  Br30  1  0.33424353  0.43686519  0.21363087  1
  Br  Br31  1  0.33425375  0.89738731  0.71360630  1
  Br  Br32  1  0.43596460  0.10356908  0.38026951  1
  Br  Br33  1  0.10262857  0.43688434  0.71361496  1
  Br  Br34  1  0.56311560  0.89737122  0.21361430  1
  Br  Br35  1  0.56313466  0.66575588  0.71363066  1
