# generated using pymatgen
data_NaI
_symmetry_space_group_name_H-M   'P 1'
_cell_length_a   4.29656124
_cell_length_b   4.29602688
_cell_length_c   15.09512917
_cell_angle_alpha   89.99960762
_cell_angle_beta   90.00055836
_cell_angle_gamma   90.00168066
_symmetry_Int_Tables_number   1
_chemical_formula_structural   NaI
_chemical_formula_sum   'Na4 I4'
_cell_volume   278.62804668
_cell_formula_units_Z   4
loop_
 _symmetry_equiv_pos_site_id
 _symmetry_equiv_pos_as_xyz
  1  'x, y, z'
loop_
 _atom_site_type_symbol
 _atom_site_label
 _atom_site_symmetry_multiplicity
 _atom_site_fract_x
 _atom_site_fract_y
 _atom_site_fract_z
 _atom_site_occupancy
  Na  Na0  1  0.75093190  0.73635058  0.93900699  1
  Na  Na1  1  0.73634834  0.24906611  0.18900702  1
  Na  Na2  1  0.24906618  0.26364883  0.43900901  1
  Na  Na3  1  0.26365126  0.75093418  0.68900754  1
  I  I4  1  0.76148520  0.25884651  0.60108168  1
  I  I5  1  0.25884618  0.23851630  0.85108393  1
  I  I6  1  0.23851758  0.74115217  0.10108363  1
  I  I7  1  0.74115337  0.76148533  0.35108268  1
