# generated using pymatgen
data_KI
_symmetry_space_group_name_H-M   'P 1'
_cell_length_a   9.53966570
_cell_length_b   9.53886993
_cell_length_c   5.85125087
_cell_angle_alpha   89.99908253
_cell_angle_beta   90.00016231
_cell_angle_gamma   89.99906060
_symmetry_Int_Tables_number   1
_chemical_formula_structural   KI
_chemical_formula_sum   'K4 I4'
_cell_volume   532.44996338
_cell_formula_units_Z   4
loop_
 _symmetry_equiv_pos_site_id
 _symmetry_equiv_pos_as_xyz
  1  'x, y, z'
loop_
 _atom_site_type_symbol
 _atom_site_label
 _atom_site_symmetry_multiplicity
 _atom_site_fract_x
 _atom_site_fract_y
 _atom_site_fract_z
 _atom_site_occupancy
  K  K0  1  0.32105922  0.17956723  0.74824973  1
  K  K1  1  0.67894089  0.82043314  0.74824862  1
  K  K2  1  0.82042372  0.32107894  0.25176679  1
  K  K3  1  0.17957689  0.67892116  0.25176548  1
  I  I4  1  0.81540403  0.68574431  0.24790940  1
  I  I5  1  0.18459569  0.31425569  0.24791328  1
  I  I6  1  0.31421945  0.81544222  0.75206835  1
  I  I7  1  0.68578011  0.18455731  0.75207835  1
