# generated using pymatgen
data_LiBr
_symmetry_space_group_name_H-M   'P 1'
_cell_length_a   8.26422394
_cell_length_b   8.26423819
_cell_length_c   7.20870715
_cell_angle_alpha   89.99977004
_cell_angle_beta   89.99991237
_cell_angle_gamma   90.00001086
_symmetry_Int_Tables_number   1
_chemical_formula_structural   LiBr
_chemical_formula_sum   'Li8 Br8'
_cell_volume   492.33678557
_cell_formula_units_Z   8
loop_
 _symmetry_equiv_pos_site_id
 _symmetry_equiv_pos_as_xyz
  1  'x, y, z'
loop_
 _atom_site_type_symbol
 _atom_site_label
 _atom_site_symmetry_multiplicity
 _atom_site_fract_x
 _atom_site_fract_y
 _atom_site_fract_z
 _atom_site_occupancy
  Li  Li0  1  0.76284997  0.50065443  0.12763459  1
  Li  Li1  1  0.50065491  0.76284745  0.62763413  1
  Li  Li2  1  0.23715297  0.49934562  0.12763931  1
  Li  Li3  1  0.50065525  0.23715250  0.12763784  1
  Li  Li4  1  0.49934637  0.76284797  0.12763629  1
  Li  Li5  1  0.23714905  0.50065562  0.62763674  1
  Li  Li6  1  0.49934395  0.23715265  0.62763999  1
  Li  Li7  1  0.76284608  0.49934442  0.62763728  1
  Br  Br8  1  0.72409177  0.27476708  0.87806087  1
  Br  Br9  1  0.27476783  0.72409196  0.37805918  1
  Br  Br10  1  0.27590937  0.72523207  0.87805909  1
  Br  Br11  1  0.27476723  0.27590944  0.87806223  1
  Br  Br12  1  0.72523306  0.72409126  0.87805760  1
  Br  Br13  1  0.27590812  0.27476807  0.37806194  1
  Br  Br14  1  0.72523163  0.27590840  0.37806079  1
  Br  Br15  1  0.72409246  0.72523108  0.37805789  1
