# generated using pymatgen
data_NaBr
_symmetry_space_group_name_H-M   'P 1'
_cell_length_a   12.39816310
_cell_length_b   12.39833927
_cell_length_c   7.93014689
_cell_angle_alpha   89.98298100
_cell_angle_beta   90.01689975
_cell_angle_gamma   119.94483233
_symmetry_Int_Tables_number   1
_chemical_formula_structural   NaBr
_chemical_formula_sum   'Na18 Br18'
_cell_volume   1056.26735632
_cell_formula_units_Z   18
loop_
 _symmetry_equiv_pos_site_id
 _symmetry_equiv_pos_as_xyz
  1  'x, y, z'
loop_
 _atom_site_type_symbol
 _atom_site_label
 _atom_site_symmetry_multiplicity
 _atom_site_fract_x
 _atom_site_fract_y
 _atom_site_fract_z
 _atom_site_occupancy
  Na  Na0  1  0.25053754  0.19364286  0.43761014  1
  Na  Na1  1  0.25052229  0.05694203  0.93759242  1
  Na  Na2  1  0.13968386  0.41616513  0.60426704  1
  Na  Na3  1  0.27638397  0.86021209  0.60436535  1
  Na  Na4  1  0.47315563  0.39034765  0.77098490  1
  Na  Na5  1  0.80646718  0.05697253  0.43773485  1
  Na  Na6  1  0.27642521  0.41617645  0.10425094  1
  Na  Na7  1  0.13979069  0.72361429  0.10436582  1
  Na  Na8  1  0.94305986  0.74947819  0.43759022  1
  Na  Na9  1  0.94302582  0.19353540  0.93773433  1
  Na  Na10  1  0.58383888  0.86031698  0.10426652  1
  Na  Na11  1  0.58382425  0.72357696  0.60425198  1
  Na  Na12  1  0.60968604  0.08278893  0.77083962  1
  Na  Na13  1  0.60965089  0.52684679  0.27098446  1
  Na  Na14  1  0.80635789  0.74946599  0.93760938  1
  Na  Na15  1  0.47305309  0.08279786  0.27085053  1
  Na  Na16  1  0.91720499  0.52694723  0.77085142  1
  Na  Na17  1  0.91721153  0.39031596  0.27084233  1
  Br  Br18  1  0.43416001  0.27835978  0.12797127  1
  Br  Br19  1  0.43420387  0.15585443  0.62791446  1
  Br  Br20  1  0.05506306  0.23250420  0.29460029  1
  Br  Br21  1  0.17745161  0.94490388  0.29461142  1
  Br  Br22  1  0.38840043  0.48914222  0.46130844  1
  Br  Br23  1  0.72169327  0.15579540  0.12797751  1
  Br  Br24  1  0.17740059  0.23245679  0.79455922  1
  Br  Br25  1  0.05509889  0.82254662  0.79461109  1
  Br  Br26  1  0.84414746  0.56579151  0.12791343  1
  Br  Br27  1  0.84420296  0.27830947  0.62797831  1
  Br  Br28  1  0.76749508  0.94493146  0.79460406  1
  Br  Br29  1  0.76753878  0.82260148  0.29456033  1
  Br  Br30  1  0.51080036  -0.10083024  0.46123311  1
  Br  Br31  1  0.51085604  0.61160226  0.96130891  1
  Br  Br32  1  0.72163483  0.56583892  0.62796731  1
  Br  Br33  1  0.38836016  -0.10078764  0.96128269  1
  Br  Br34  1  0.10078692  0.61163453  0.46128708  1
  Br  Br35  1  0.10082607  0.48920159  0.96123479  1
