# generated using pymatgen
data_LiBr
_symmetry_space_group_name_H-M   'P 1'
_cell_length_a   7.79489839
_cell_length_b   7.79489765
_cell_length_c   11.00019247
_cell_angle_alpha   89.99987935
_cell_angle_beta   90.00004175
_cell_angle_gamma   89.99989544
_symmetry_Int_Tables_number   1
_chemical_formula_structural   LiBr
_chemical_formula_sum   'Li16 Br16'
_cell_volume   668.37648113
_cell_formula_units_Z   16
loop_
 _symmetry_equiv_pos_site_id
 _symmetry_equiv_pos_as_xyz
  1  'x, y, z'
loop_
 _atom_site_type_symbol
 _atom_site_label
 _atom_site_symmetry_multiplicity
 _atom_site_fract_x
 _atom_site_fract_y
 _atom_site_fract_z
 _atom_site_occupancy
  Li  Li0  1  0.24928803  0.49899865  0.87486059  1
  Li  Li1  1  0.49899901  0.75071181  0.12513973  1
  Li  Li2  1  0.24928638  0.50100292  0.37485980  1
  Li  Li3  1  -0.00100121  0.25071301  0.62514047  1
  Li  Li4  1  0.74928715  0.00100034  0.87485962  1
  Li  Li5  1  0.00100224  0.74928788  0.62514054  1
  Li  Li6  1  0.74928742  -0.00100336  0.37485978  1
  Li  Li7  1  0.25071338  0.00100489  0.37485966  1
  Li  Li8  1  0.00100168  0.25071166  0.12514004  1
  Li  Li9  1  0.25071269  -0.00100182  0.87486045  1
  Li  Li10  1  -0.00100244  0.74928729  0.12514022  1
  Li  Li11  1  0.75071169  0.50100130  0.87485961  1
  Li  Li12  1  0.50100208  0.24928720  0.12514013  1
  Li  Li13  1  0.50100089  0.75071303  0.62514015  1
  Li  Li14  1  0.75071212  0.49899690  0.37485800  1
  Li  Li15  1  0.49899830  0.24928825  0.62514073  1
  Br  Br16  1  0.50046748  0.74982027  0.87508221  1
  Br  Br17  1  0.74982003  0.49953407  0.12491819  1
  Br  Br18  1  0.50046507  0.25018081  0.37508165  1
  Br  Br19  1  0.24981972  -0.00046533  0.62491744  1
  Br  Br20  1  0.00046424  0.75018075  0.87508196  1
  Br  Br21  1  0.75018033  0.00046493  0.62491822  1
  Br  Br22  1  0.00046711  0.24982110  0.37508191  1
  Br  Br23  1  -0.00046586  0.75017884  0.37508235  1
  Br  Br24  1  0.75018023  -0.00046592  0.12491751  1
  Br  Br25  1  -0.00046673  0.24981910  0.87508251  1
  Br  Br26  1  0.24982011  0.00046682  0.12491848  1
  Br  Br27  1  0.49953485  0.25017946  0.87508274  1
  Br  Br28  1  0.25018022  0.50046459  0.12491904  1
  Br  Br29  1  0.25017913  0.49953426  0.62491666  1
  Br  Br30  1  0.49953406  0.74981941  0.37508207  1
  Br  Br31  1  0.74982063  0.50046689  0.62491754  1
