# generated using pymatgen
data_LiI
_symmetry_space_group_name_H-M   'P 1'
_cell_length_a   6.96351790
_cell_length_b   5.08761586
_cell_length_c   7.21717219
_cell_angle_alpha   89.99999800
_cell_angle_beta   92.29664232
_cell_angle_gamma   89.99999141
_symmetry_Int_Tables_number   1
_chemical_formula_structural   LiI
_chemical_formula_sum   'Li4 I4'
_cell_volume   255.48245847
_cell_formula_units_Z   4
loop_
 _symmetry_equiv_pos_site_id
 _symmetry_equiv_pos_as_xyz
  1  'x, y, z'
loop_
 _atom_site_type_symbol
 _atom_site_label
 _atom_site_symmetry_multiplicity
 _atom_site_fract_x
 _atom_site_fract_y
 _atom_site_fract_z
 _atom_site_occupancy
  Li  Li0  1  0.93116107  0.52000344  0.54865053  1
  Li  Li1  1  0.43116274  0.01998808  0.54865079  1
  Li  Li2  1  0.93116111  0.47999609  0.04865074  1
  Li  Li3  1  0.43116279  0.98001147  0.04865096  1
  I  I4  1  0.68364874  0.24662905  0.29950784  1
  I  I5  1  0.18364871  0.74662899  0.29950039  1
  I  I6  1  0.68364915  0.75337140  0.79950808  1
  I  I7  1  0.18364909  0.25337148  0.79950062  1
