# generated using pymatgen
data_LiI
_symmetry_space_group_name_H-M   'P 1'
_cell_length_a   10.68966368
_cell_length_b   10.69012603
_cell_length_c   4.45200599
_cell_angle_alpha   90.00002028
_cell_angle_beta   90.00010179
_cell_angle_gamma   120.01036087
_symmetry_Int_Tables_number   1
_chemical_formula_structural   LiI
_chemical_formula_sum   'Li6 I6'
_cell_volume   440.54257686
_cell_formula_units_Z   6
loop_
 _symmetry_equiv_pos_site_id
 _symmetry_equiv_pos_as_xyz
  1  'x, y, z'
loop_
 _atom_site_type_symbol
 _atom_site_label
 _atom_site_symmetry_multiplicity
 _atom_site_fract_x
 _atom_site_fract_y
 _atom_site_fract_z
 _atom_site_occupancy
  Li  Li0  1  0.53872401  0.68282212  0.84993903  1
  Li  Li1  1  0.85589512  0.53873409  0.51666134  1
  Li  Li2  1  0.14410486  0.46126606  0.51665987  1
  Li  Li3  1  0.68275241  0.14412291  0.18328104  1
  Li  Li4  1  0.31724785  0.85587692  0.18328434  1
  Li  Li5  1  0.46127552  0.31717743  0.84993998  1
  I  I6  1  0.14772249  0.72095885  0.66139385  1
  I  I7  1  0.42668054  0.14766369  0.32801142  1
  I  I8  1  0.57331957  0.85233576  0.32801123  1
  I  I9  1  0.72096261  0.57324945  -0.00526307  1
  I  I10  1  0.27903762  0.42675111  -0.00526331  1
  I  I11  1  0.85227740  0.27904161  0.66139303  1
