# generated using pymatgen
data_LiBr
_symmetry_space_group_name_H-M   'P 1'
_cell_length_a   6.95489489
_cell_length_b   4.33546354
_cell_length_c   6.65979715
_cell_angle_alpha   89.99993337
_cell_angle_beta   90.00001122
_cell_angle_gamma   90.00000286
_symmetry_Int_Tables_number   1
_chemical_formula_structural   LiBr
_chemical_formula_sum   'Li4 Br4'
_cell_volume   200.81082003
_cell_formula_units_Z   4
loop_
 _symmetry_equiv_pos_site_id
 _symmetry_equiv_pos_as_xyz
  1  'x, y, z'
loop_
 _atom_site_type_symbol
 _atom_site_label
 _atom_site_symmetry_multiplicity
 _atom_site_fract_x
 _atom_site_fract_y
 _atom_site_fract_z
 _atom_site_occupancy
  Li  Li0  1  0.41998756  0.25038973  0.15589219  1
  Li  Li1  1  0.91998657  -0.25039056  0.15589020  1
  Li  Li2  1  0.58001302  -0.25039168  0.65588964  1
  Li  Li3  1  0.08001302  0.25039165  0.65589206  1
  Br  Br4  1  0.07508729  0.25001580  0.03769694  1
  Br  Br5  1  0.57508690  0.74998440  0.03769743  1
  Br  Br6  1  -0.07508713  0.74998591  0.53769661  1
  Br  Br7  1  0.42491275  0.25001475  0.53769677  1
