# generated using pymatgen
data_LiBr
_symmetry_space_group_name_H-M   'P 1'
_cell_length_a   4.05523145
_cell_length_b   4.05502283
_cell_length_c   12.08579237
_cell_angle_alpha   89.99990991
_cell_angle_beta   90.00007902
_cell_angle_gamma   90.00875708
_symmetry_Int_Tables_number   1
_chemical_formula_structural   LiBr
_chemical_formula_sum   'Li4 Br4'
_cell_volume   198.73944590
_cell_formula_units_Z   4
loop_
 _symmetry_equiv_pos_site_id
 _symmetry_equiv_pos_as_xyz
  1  'x, y, z'
loop_
 _atom_site_type_symbol
 _atom_site_label
 _atom_site_symmetry_multiplicity
 _atom_site_fract_x
 _atom_site_fract_y
 _atom_site_fract_z
 _atom_site_occupancy
  Li  Li0  1  0.51879992  0.51762220  0.16491311  1
  Li  Li1  1  0.51792958  0.48136578  0.91475644  1
  Li  Li2  1  0.48119978  0.48237894  0.66491303  1
  Li  Li3  1  0.48207117  0.51863228  0.41475601  1
  Br  Br4  1  0.98403676  0.49957719  0.53966215  1
  Br  Br5  1  0.49947642  0.01574183  0.28966540  1
  Br  Br6  1  0.01596322  0.50042393  0.03966215  1
  Br  Br7  1  0.50052316  0.98425785  0.78966522  1
