# generated using pymatgen
data_LiBr
_symmetry_space_group_name_H-M   'P 1'
_cell_length_a   8.82564260
_cell_length_b   8.82564938
_cell_length_c   11.30521265
_cell_angle_alpha   89.99980007
_cell_angle_beta   90.00015265
_cell_angle_gamma   89.99876988
_symmetry_Int_Tables_number   1
_chemical_formula_structural   LiBr
_chemical_formula_sum   'Li16 Br16'
_cell_volume   880.58593029
_cell_formula_units_Z   16
loop_
 _symmetry_equiv_pos_site_id
 _symmetry_equiv_pos_as_xyz
  1  'x, y, z'
loop_
 _atom_site_type_symbol
 _atom_site_label
 _atom_site_symmetry_multiplicity
 _atom_site_fract_x
 _atom_site_fract_y
 _atom_site_fract_z
 _atom_site_occupancy
  Li  Li0  1  0.30387286  0.15597594  0.88676748  1
  Li  Li1  1  0.34402154  0.80387697  0.61323329  1
  Li  Li2  1  0.30387762  0.65597635  0.36323267  1
  Li  Li3  1  0.69612339  0.84402271  0.88676813  1
  Li  Li4  1  0.65597702  0.19612143  0.61323379  1
  Li  Li5  1  0.84402354  0.80387960  0.13676700  1
  Li  Li6  1  0.15597810  0.19612371  0.13676699  1
  Li  Li7  1  0.34402294  0.30387858  0.63676653  1
  Li  Li8  1  0.65597935  0.69612351  0.63676661  1
  Li  Li9  1  0.19612218  0.34402445  0.38676704  1
  Li  Li10  1  0.15597647  0.69612074  0.11323278  1
  Li  Li11  1  0.80387363  0.65597472  0.38676691  1
  Li  Li12  1  0.84402062  0.30387545  0.11323299  1
  Li  Li13  1  0.80387657  0.15597685  0.86323214  1
  Li  Li14  1  0.19612565  0.84402568  0.86323292  1
  Li  Li15  1  0.69612824  0.34402331  0.36323323  1
  Br  Br16  1  0.53604630  0.28933000  0.80566941  1
  Br  Br17  1  0.21067066  0.03604216  0.69433013  1
  Br  Br18  1  0.53604484  0.78933148  0.44433019  1
  Br  Br19  1  0.46395537  0.71066873  0.80566936  1
  Br  Br20  1  0.78933080  0.96395916  0.69432997  1
  Br  Br21  1  0.71066832  0.03604054  0.05566962  1
  Br  Br22  1  0.28932963  0.96395768  0.05566927  1
  Br  Br23  1  0.21066987  0.53604141  0.55567055  1
  Br  Br24  1  0.78933013  0.46395804  0.55566983  1
  Br  Br25  1  0.96395646  0.21066861  0.30566903  1
  Br  Br26  1  0.28933159  0.46395869  0.19432955  1
  Br  Br27  1  0.03604681  0.78932881  0.30566958  1
  Br  Br28  1  0.71066972  0.53604217  0.19433078  1
  Br  Br29  1  0.03604332  0.28933135  0.94433130  1
  Br  Br30  1  0.96395361  0.71067049  0.94433070  1
  Br  Br31  1  0.46395285  0.21067067  0.44433027  1
