# generated using pymatgen
data_LiBr
_symmetry_space_group_name_H-M   'P 1'
_cell_length_a   3.91556420
_cell_length_b   3.91552028
_cell_length_c   10.83611866
_cell_angle_alpha   89.99975834
_cell_angle_beta   90.00015406
_cell_angle_gamma   89.99859730
_symmetry_Int_Tables_number   1
_chemical_formula_structural   LiBr
_chemical_formula_sum   'Li4 Br4'
_cell_volume   166.13363916
_cell_formula_units_Z   4
loop_
 _symmetry_equiv_pos_site_id
 _symmetry_equiv_pos_as_xyz
  1  'x, y, z'
loop_
 _atom_site_type_symbol
 _atom_site_label
 _atom_site_symmetry_multiplicity
 _atom_site_fract_x
 _atom_site_fract_y
 _atom_site_fract_z
 _atom_site_occupancy
  Li  Li0  1  -0.00066057  0.49992491  0.70539409  1
  Li  Li1  1  0.49987457  0.00062574  0.95538760  1
  Li  Li2  1  0.00065909  0.50008259  0.20539311  1
  Li  Li3  1  0.50013134  -0.00063423  0.45538347  1
  Br  Br4  1  -0.00071978  0.49992328  0.45473936  1
  Br  Br5  1  0.49988886  0.00072216  0.70473960  1
  Br  Br6  1  0.00071410  0.50007638  0.95474113  1
  Br  Br7  1  0.50011239  -0.00072082  0.20474107  1
