# generated using pymatgen
data_LiI
_symmetry_space_group_name_H-M   'P 1'
_cell_length_a   13.21170836
_cell_length_b   13.20966565
_cell_length_c   11.22400596
_cell_angle_alpha   90.01896219
_cell_angle_beta   89.98820036
_cell_angle_gamma   90.00138591
_symmetry_Int_Tables_number   1
_chemical_formula_structural   LiI
_chemical_formula_sum   'Li16 I16'
_cell_volume   1958.83862591
_cell_formula_units_Z   16
loop_
 _symmetry_equiv_pos_site_id
 _symmetry_equiv_pos_as_xyz
  1  'x, y, z'
loop_
 _atom_site_type_symbol
 _atom_site_label
 _atom_site_symmetry_multiplicity
 _atom_site_fract_x
 _atom_site_fract_y
 _atom_site_fract_z
 _atom_site_occupancy
  Li  Li0  1  0.85675791  0.14208436  0.75670614  1
  Li  Li1  1  0.85784017  0.85663482  0.75671432  1
  Li  Li2  1  0.14323947  0.14206186  0.24353748  1
  Li  Li3  1  0.35821422  0.35627944  0.25663090  1
  Li  Li4  1  0.64361123  0.64168656  0.74326395  1
  Li  Li5  1  0.64178691  0.64372877  0.25664632  1
  Li  Li6  1  0.35641593  0.64169918  0.25680955  1
  Li  Li7  1  0.64360078  0.35828551  0.25656355  1
  Li  Li8  1  0.35825973  0.64372270  0.74353313  1
  Li  Li9  1  0.35638369  0.35829122  0.74323120  1
  Li  Li10  1  0.64177778  0.35623480  0.74318644  1
  Li  Li11  1  0.14321175  0.85794330  0.75635673  1
  Li  Li12  1  0.14216820  0.14338529  0.75689569  1
  Li  Li13  1  0.85787813  0.14338428  0.24335143  1
  Li  Li14  1  0.85674919  0.85793277  0.24339988  1
  Li  Li15  1  0.14213599  0.85659808  0.24316008  1
  I  I16  1  0.00102622  0.72882182  0.75576965  1
  I  I17  1  0.27114696  0.00104782  0.75585492  1
  I  I18  1  -0.00107575  0.72883086  0.24431208  1
  I  I19  1  0.77115635  0.50172592  0.25574002  1
  I  I20  1  0.49816021  0.22879241  0.74427649  1
  I  I21  1  0.22888412  0.49833906  0.25569776  1
  I  I22  1  0.50176196  0.22880637  0.25585266  1
  I  I23  1  0.49818848  0.77115959  0.25566102  1
  I  I24  1  0.77118675  0.49829269  0.74441391  1
  I  I25  1  0.50180372  0.77115601  0.74404337  1
  I  I26  1  0.22885832  0.50175520  0.74432814  1
  I  I27  1  -0.00104983  0.27120548  0.75558612  1
  I  I28  1  0.72884495  -0.00106708  0.75573716  1
  I  I29  1  0.27113751  -0.00108808  0.24436467  1
  I  I30  1  0.00107816  0.27117675  0.24414045  1
  I  I31  1  0.72886080  0.00109227  0.24423479  1
