# generated using pymatgen
data_LiBr
_symmetry_space_group_name_H-M   'P 1'
_cell_length_a   6.72850389
_cell_length_b   3.89847444
_cell_length_c   7.79581280
_cell_angle_alpha   90.00002272
_cell_angle_beta   125.24500098
_cell_angle_gamma   90.00001555
_symmetry_Int_Tables_number   1
_chemical_formula_structural   LiBr
_chemical_formula_sum   'Li4 Br4'
_cell_volume   167.00629961
_cell_formula_units_Z   4
loop_
 _symmetry_equiv_pos_site_id
 _symmetry_equiv_pos_as_xyz
  1  'x, y, z'
loop_
 _atom_site_type_symbol
 _atom_site_label
 _atom_site_symmetry_multiplicity
 _atom_site_fract_x
 _atom_site_fract_y
 _atom_site_fract_z
 _atom_site_occupancy
  Li  Li0  1  0.84484985  0.50149412  0.60137272  1
  Li  Li1  1  0.34484772  0.00149627  0.60136735  1
  Li  Li2  1  0.84484530  0.49850475  0.10136966  1
  Li  Li3  1  0.34484913  0.99850620  0.10137152  1
  Br  Br4  1  0.84464043  0.00169903  0.85135750  1
  Br  Br5  1  0.34464080  0.50169932  0.85135725  1
  Br  Br6  1  0.84464022  -0.00170035  0.35135734  1
  Br  Br7  1  0.34463983  0.49830067  0.35135657  1
