# generated using pymatgen
data_KI
_symmetry_space_group_name_H-M   'P 1'
_cell_length_a   9.75751441
_cell_length_b   4.50653825
_cell_length_c   8.51038078
_cell_angle_alpha   89.99999699
_cell_angle_beta   90.00013042
_cell_angle_gamma   89.99994308
_symmetry_Int_Tables_number   1
_chemical_formula_structural   KI
_chemical_formula_sum   'K4 I4'
_cell_volume   374.22367150
_cell_formula_units_Z   4
loop_
 _symmetry_equiv_pos_site_id
 _symmetry_equiv_pos_as_xyz
  1  'x, y, z'
loop_
 _atom_site_type_symbol
 _atom_site_label
 _atom_site_symmetry_multiplicity
 _atom_site_fract_x
 _atom_site_fract_y
 _atom_site_fract_z
 _atom_site_occupancy
  K  K0  1  0.87329193  -0.00086371  0.55907028  1
  K  K1  1  0.37329424  0.00085186  0.55906994  1
  K  K2  1  0.12670846  0.00086174  0.05906970  1
  K  K3  1  0.62670673  -0.00085372  0.05906920  1
  I  I4  1  0.12414866  0.50094218  0.39084500  1
  I  I5  1  0.62414777  0.49906630  0.39084642  1
  I  I6  1  0.87585176  0.49906025  0.89084592  1
  I  I7  1  0.37585045  0.50093510  0.89084543  1
