# generated using pymatgen
data_LiBr
_symmetry_space_group_name_H-M   'P 1'
_cell_length_a   4.74441165
_cell_length_b   4.74441897
_cell_length_c   16.31385470
_cell_angle_alpha   90.00084014
_cell_angle_beta   90.00037558
_cell_angle_gamma   90.00027725
_symmetry_Int_Tables_number   1
_chemical_formula_structural   LiBr
_chemical_formula_sum   'Li8 Br8'
_cell_volume   367.21633152
_cell_formula_units_Z   8
loop_
 _symmetry_equiv_pos_site_id
 _symmetry_equiv_pos_as_xyz
  1  'x, y, z'
loop_
 _atom_site_type_symbol
 _atom_site_label
 _atom_site_symmetry_multiplicity
 _atom_site_fract_x
 _atom_site_fract_y
 _atom_site_fract_z
 _atom_site_occupancy
  Li  Li0  1  0.50121408  0.51078174  0.37488713  1
  Li  Li1  1  0.51078480  0.50120792  0.62511370  1
  Li  Li2  1  0.00121708  0.98921798  0.87511159  1
  Li  Li3  1  0.48921511  0.49878790  0.12511322  1
  Li  Li4  1  0.99878468  0.01078275  0.37511441  1
  Li  Li5  1  0.49879330  0.48921376  0.87488647  1
  Li  Li6  1  0.01077824  0.99878362  0.62488721  1
  Li  Li7  1  0.98921273  0.00121571  0.12488620  1
  Br  Br8  1  0.99850366  0.49070786  0.93760471  1
  Br  Br9  1  0.49070846  0.99850618  0.06239420  1
  Br  Br10  1  0.49850144  0.00929859  0.31239507  1
  Br  Br11  1  0.50929147  0.00149988  0.56239518  1
  Br  Br12  1  0.50150437  0.99071149  0.81239330  1
  Br  Br13  1  0.00149673  0.50929193  0.43760610  1
  Br  Br14  1  0.99070351  0.50149817  0.18760566  1
  Br  Br15  1  0.00929031  0.49849451  0.68760584  1
