# generated using pymatgen
data_LiBr
_symmetry_space_group_name_H-M   'P 1'
_cell_length_a   11.01359980
_cell_length_b   5.51555025
_cell_length_c   5.50401778
_cell_angle_alpha   89.99997167
_cell_angle_beta   90.00008697
_cell_angle_gamma   89.99999635
_symmetry_Int_Tables_number   1
_chemical_formula_structural   LiBr
_chemical_formula_sum   'Li8 Br8'
_cell_volume   334.34741165
_cell_formula_units_Z   8
loop_
 _symmetry_equiv_pos_site_id
 _symmetry_equiv_pos_as_xyz
  1  'x, y, z'
loop_
 _atom_site_type_symbol
 _atom_site_label
 _atom_site_symmetry_multiplicity
 _atom_site_fract_x
 _atom_site_fract_y
 _atom_site_fract_z
 _atom_site_occupancy
  Li  Li0  1  0.62509406  0.25000955  -0.00090238  1
  Li  Li1  1  0.62509391  0.74999345  0.49909382  1
  Li  Li2  1  0.12509521  0.24999604  0.00089781  1
  Li  Li3  1  0.87490583  0.24999422  0.49910127  1
  Li  Li4  1  0.37490433  0.25000258  0.50090323  1
  Li  Li5  1  0.87490575  0.75000347  -0.00090293  1
  Li  Li6  1  0.12509275  0.75001141  0.50090220  1
  Li  Li7  1  0.37490721  0.74999032  0.00090650  1
  Br  Br8  1  0.12499601  0.75015376  0.00037134  1
  Br  Br9  1  0.12499538  0.24984595  0.50037314  1
  Br  Br10  1  0.62499591  0.74984630  -0.00037025  1
  Br  Br11  1  0.37500410  0.74984508  0.50036903  1
  Br  Br12  1  0.87500395  0.75015452  0.49962904  1
  Br  Br13  1  0.37500522  0.25015381  0.00037101  1
  Br  Br14  1  0.62499538  0.25015457  0.49962885  1
  Br  Br15  1  0.87500500  0.24984497  -0.00037169  1
