# generated using pymatgen
data_NaI
_symmetry_space_group_name_H-M   'P 1'
_cell_length_a   18.96358462
_cell_length_b   18.96357939
_cell_length_c   8.63816817
_cell_angle_alpha   89.99996181
_cell_angle_beta   90.00007481
_cell_angle_gamma   90.00001053
_symmetry_Int_Tables_number   1
_chemical_formula_structural   NaI
_chemical_formula_sum   'Na16 I16'
_cell_volume   3106.43594359
_cell_formula_units_Z   16
loop_
 _symmetry_equiv_pos_site_id
 _symmetry_equiv_pos_as_xyz
  1  'x, y, z'
loop_
 _atom_site_type_symbol
 _atom_site_label
 _atom_site_symmetry_multiplicity
 _atom_site_fract_x
 _atom_site_fract_y
 _atom_site_fract_z
 _atom_site_occupancy
  Na  Na0  1  0.15383700  0.42903865  0.00853427  1
  Na  Na1  1  0.07096144  0.65383810  0.00853077  1
  Na  Na2  1  0.34616193  0.92903855  0.49146938  1
  Na  Na3  1  0.42903866  0.84616211  0.99146967  1
  Na  Na4  1  0.15383802  0.57096143  0.50853090  1
  Na  Na5  1  0.57095997  0.15383640  0.99145610  1
  Na  Na6  1  0.34616261  0.07096151  0.99146481  1
  Na  Na7  1  0.65383696  0.92903997  0.99146184  1
  Na  Na8  1  0.92903857  0.65383728  0.50853442  1
  Na  Na9  1  0.84616359  0.42904034  0.50854373  1
  Na  Na10  1  0.07095967  0.34616311  0.50853808  1
  Na  Na11  1  0.84616308  0.57096003  0.00853919  1
  Na  Na12  1  0.92904020  0.34616384  0.00854330  1
  Na  Na13  1  0.57096136  0.84616260  0.49146615  1
  Na  Na14  1  0.65383641  0.07095965  0.49145688  1
  Na  Na15  1  0.42904018  0.15383711  0.49146039  1
  I  I16  1  0.31762043  0.06828642  0.33452292  1
  I  I17  1  0.43171297  0.81762082  0.33452820  1
  I  I18  1  0.18237897  0.56828755  0.16547219  1
  I  I19  1  0.06828711  0.68237924  0.66547200  1
  I  I20  1  0.31762087  0.93171218  0.83452800  1
  I  I21  1  0.93171371  0.31762032  0.66548068  1
  I  I22  1  0.18237925  0.43171342  0.66547652  1
  I  I23  1  0.81762015  0.56828704  0.66547578  1
  I  I24  1  0.56828718  0.81762093  0.83452382  1
  I  I25  1  0.68237971  0.06828671  0.83451961  1
  I  I26  1  0.43171244  0.18237964  0.83452392  1
  I  I27  1  0.68238000  0.93171282  0.33452515  1
  I  I28  1  0.56828641  0.18237957  0.33451887  1
  I  I29  1  0.93171296  0.68237924  0.16547664  1
  I  I30  1  0.81762057  0.43171330  0.16548091  1
  I  I31  1  0.06828765  0.31762012  0.16547491  1
