# generated using pymatgen
data_KI
_symmetry_space_group_name_H-M   'P 1'
_cell_length_a   9.79489820
_cell_length_b   4.50967284
_cell_length_c   8.47569383
_cell_angle_alpha   90.00000558
_cell_angle_beta   90.00012135
_cell_angle_gamma   90.00000478
_symmetry_Int_Tables_number   1
_chemical_formula_structural   KI
_chemical_formula_sum   'K4 I4'
_cell_volume   374.38653715
_cell_formula_units_Z   4
loop_
 _symmetry_equiv_pos_site_id
 _symmetry_equiv_pos_as_xyz
  1  'x, y, z'
loop_
 _atom_site_type_symbol
 _atom_site_label
 _atom_site_symmetry_multiplicity
 _atom_site_fract_x
 _atom_site_fract_y
 _atom_site_fract_z
 _atom_site_occupancy
  K  K0  1  0.12374317  0.50107341  0.29970411  1
  K  K1  1  0.62374355  0.49892617  0.29970402  1
  K  K2  1  0.87625690  0.49892652  0.79970407  1
  K  K3  1  0.37625758  0.50107369  0.79970321  1
  I  I4  1  0.62671804  -0.00136240  0.63277664  1
  I  I5  1  0.12671774  0.00136248  0.63277642  1
  I  I6  1  0.37328168  0.00136247  0.13277632  1
  I  I7  1  0.87328134  -0.00136234  0.13277630  1
