# generated using pymatgen
data_LiBr
_symmetry_space_group_name_H-M   'P 1'
_cell_length_a   11.43975428
_cell_length_b   11.43974042
_cell_length_c   7.30852578
_cell_angle_alpha   90.01696162
_cell_angle_beta   89.98346481
_cell_angle_gamma   120.00390232
_symmetry_Int_Tables_number   1
_chemical_formula_structural   LiBr
_chemical_formula_sum   'Li18 Br18'
_cell_volume   828.27809755
_cell_formula_units_Z   18
loop_
 _symmetry_equiv_pos_site_id
 _symmetry_equiv_pos_as_xyz
  1  'x, y, z'
loop_
 _atom_site_type_symbol
 _atom_site_label
 _atom_site_symmetry_multiplicity
 _atom_site_fract_x
 _atom_site_fract_y
 _atom_site_fract_z
 _atom_site_occupancy
  Li  Li0  1  0.13322401  0.57074044  0.54311672  1
  Li  Li1  1  0.13323432  0.56250884  0.04315061  1
  Li  Li2  1  0.76259156  0.53343971  0.70978573  1
  Li  Li3  1  0.77081736  0.23738748  0.70980120  1
  Li  Li4  1  0.09594026  0.89584717  0.87647230  1
  Li  Li5  1  0.42927395  0.56251308  0.54313561  1
  Li  Li6  1  0.77082662  0.53343273  0.20981877  1
  Li  Li7  1  0.76261045  0.22918012  0.20980075  1
  Li  Li8  1  0.43748962  0.86676542  0.54315730  1
  Li  Li9  1  0.43749035  0.57072744  0.04313604  1
  Li  Li10  1  0.46655886  0.23740422  0.20978573  1
  Li  Li11  1  0.46656462  0.22917358  0.70981920  1
  Li  Li12  1  0.10415751  0.20010185  0.87648457  1
  Li  Li13  1  0.10415504  0.90406053  0.37647149  1
  Li  Li14  1  0.42926092  0.86677433  0.04312182  1
  Li  Li15  1  0.09593043  0.20010925  0.37645059  1
  Li  Li16  1  0.79989356  0.90407498  0.87645257  1
  Li  Li17  1  0.79990289  0.89584316  0.37648875  1
  Br  Br18  1  0.21874909  0.76722784  0.80715850  1
  Br  Br19  1  0.21875180  0.45151839  0.30721855  1
  Br  Br20  1  0.56610672  0.44791738  0.97382715  1
  Br  Br21  1  0.88182853  0.43389129  0.97388857  1
  Br  Br22  1  0.89944183  0.78483759  0.14056653  1
  Br  Br23  1  0.23277672  0.45150695  0.80722640  1
  Br  Br24  1  0.88181443  0.44791276  0.47388178  1
  Br  Br25  1  0.56610595  0.11817057  0.47388991  1
  Br  Br26  1  0.54848380  0.78124918  0.80722133  1
  Br  Br27  1  0.54849581  0.76722632  0.30722871  1
  Br  Br28  1  0.55207982  0.43389190  0.47382676  1
  Br  Br29  1  0.55208609  0.11818224  0.97388319  1
  Br  Br30  1  0.21515160  0.11458129  0.14054925  1
  Br  Br31  1  0.21516000  0.10055799  0.64055693  1
  Br  Br32  1  0.23277321  0.78125095  0.30715816  1
  Br  Br33  1  0.89943857  0.11458441  0.64048720  1
  Br  Br34  1  0.88541710  0.10056131  0.14048773  1
  Br  Br35  1  0.88541659  0.78484729  0.64055928  1
