# generated using pymatgen
data_LiI
_symmetry_space_group_name_H-M   'P 1'
_cell_length_a   11.52503200
_cell_length_b   11.52509605
_cell_length_c   12.87013836
_cell_angle_alpha   90.01581076
_cell_angle_beta   89.98320508
_cell_angle_gamma   120.02302282
_symmetry_Int_Tables_number   1
_chemical_formula_structural   LiI
_chemical_formula_sum   'Li18 I18'
_cell_volume   1480.12950952
_cell_formula_units_Z   18
loop_
 _symmetry_equiv_pos_site_id
 _symmetry_equiv_pos_as_xyz
  1  'x, y, z'
loop_
 _atom_site_type_symbol
 _atom_site_label
 _atom_site_symmetry_multiplicity
 _atom_site_fract_x
 _atom_site_fract_y
 _atom_site_fract_z
 _atom_site_occupancy
  Li  Li0  1  0.25054914  0.00026764  0.77695429  1
  Li  Li1  1  0.25048987  0.25023412  0.27693763  1
  Li  Li2  1  0.33305474  0.41609041  0.94362629  1
  Li  Li3  1  0.08301531  0.66691316  0.94357128  1
  Li  Li4  1  0.66639881  0.58363265  0.11023743  1
  Li  Li5  1  -0.00022930  0.25030869  0.77689360  1
  Li  Li6  1  0.08307685  0.41614917  0.44360211  1
  Li  Li7  1  0.33308966  0.91698382  0.44356799  1
  Li  Li8  1  0.74976336  0.74950913  0.77693963  1
  Li  Li9  1  0.74969044  0.00023358  0.27689972  1
  Li  Li10  1  0.58390699  0.66694212  0.44362303  1
  Li  Li11  1  0.58385136  0.91692350  0.94360207  1
  Li  Li12  1  0.41642510  0.08281252  0.11027220  1
  Li  Li13  1  0.41636721  0.33360450  0.61024101  1
  Li  Li14  1  -0.00027006  0.74945085  0.27695785  1
  Li  Li15  1  0.66636511  0.08275422  0.61029611  1
  Li  Li16  1  0.91724394  0.33363246  0.11029126  1
  Li  Li17  1  0.91718981  0.58357478  0.61027037  1
  I  I18  1  0.76267440  -0.00043137  0.77676261  1
  I  I19  1  0.76276171  0.76317812  0.27682805  1
  I  I20  1  0.33376400  -0.09599633  0.94342788  1
  I  I21  1  0.57026015  0.66627436  0.94357183  1
  I  I22  1  0.66706575  0.09640774  0.11023935  1
  I  I23  1  0.00039681  0.76307437  0.77690492  1
  I  I24  1  0.57015971  -0.09609910  0.44350079  1
  I  I25  1  0.33372731  0.42973588  0.44356912  1
  I  I26  1  0.23682667  0.23723364  0.77683669  1
  I  I27  1  0.23692387  -0.00039438  0.27690782  1
  I  I28  1  0.09600209  0.66623345  0.44342457  1
  I  I29  1  0.09609429  0.42984308  0.94349074  1
  I  I30  1  -0.09650823  0.57057605  0.11017123  1
  I  I31  1  -0.09641065  0.33293541  0.61024041  1
  I  I32  1  0.00042933  0.23733098  0.27676422  1
  I  I33  1  0.66710813  0.57067829  0.61010212  1
  I  I34  1  0.42932659  0.33289025  0.11010012  1
  I  I35  1  0.42941976  0.09651222  0.61016208  1
