# generated using pymatgen
data_LiI
_symmetry_space_group_name_H-M   'P 1'
_cell_length_a   11.96298799
_cell_length_b   11.96297872
_cell_length_c   7.57621121
_cell_angle_alpha   90.00000516
_cell_angle_beta   89.99998464
_cell_angle_gamma   120.00912811
_symmetry_Int_Tables_number   1
_chemical_formula_structural   LiI
_chemical_formula_sum   'Li12 I12'
_cell_volume   938.90520845
_cell_formula_units_Z   12
loop_
 _symmetry_equiv_pos_site_id
 _symmetry_equiv_pos_as_xyz
  1  'x, y, z'
loop_
 _atom_site_type_symbol
 _atom_site_label
 _atom_site_symmetry_multiplicity
 _atom_site_fract_x
 _atom_site_fract_y
 _atom_site_fract_z
 _atom_site_occupancy
  Li  Li0  1  0.65085171  0.53200628  -0.02980816  1
  Li  Li1  1  0.11879521  0.65078642  -0.02980454  1
  Li  Li2  1  0.88120356  0.53203836  0.47018804  1
  Li  Li3  1  0.34921364  0.88120439  0.47019538  1
  Li  Li4  1  0.65078630  0.11879556  0.47019591  1
  Li  Li5  1  0.53200617  0.65085138  0.47019271  1
  Li  Li6  1  0.11879633  0.46796158  0.47018785  1
  Li  Li7  1  0.46799389  0.34914823  0.47019246  1
  Li  Li8  1  0.46796058  0.11879680  -0.02981026  1
  Li  Li9  1  0.34914825  0.46799396  -0.02980770  1
  Li  Li10  1  0.88120503  0.34921402  -0.02980427  1
  Li  Li11  1  0.53203967  0.88120350  -0.02980956  1
  I  I12  1  0.12595658  0.43583913  0.83239332  1
  I  I13  1  0.69011879  0.12593697  0.83239361  1
  I  I14  1  0.30986452  0.43580273  0.33238668  1
  I  I15  1  0.87406292  0.30988058  0.33239363  1
  I  I16  1  0.12593717  0.69011948  0.33239301  1
  I  I17  1  0.43583846  0.12595587  0.33239402  1
  I  I18  1  0.69013513  0.56419697  0.33238699  1
  I  I19  1  0.56416134  0.87404399  0.33239479  1
  I  I20  1  0.56419693  0.69013547  0.83238737  1
  I  I21  1  0.87404344  0.56416078  0.83239348  1
  I  I22  1  0.30988148  0.87406298  0.83239357  1
  I  I23  1  0.43580291  0.30986457  0.83238666  1
