# generated using pymatgen
data_LiI
_symmetry_space_group_name_H-M   'P 1'
_cell_length_a   11.99460301
_cell_length_b   11.99459744
_cell_length_c   8.27598740
_cell_angle_alpha   89.99984653
_cell_angle_beta   89.99995761
_cell_angle_gamma   90.00008841
_symmetry_Int_Tables_number   1
_chemical_formula_structural   LiI
_chemical_formula_sum   'Li16 I16'
_cell_volume   1190.66990331
_cell_formula_units_Z   16
loop_
 _symmetry_equiv_pos_site_id
 _symmetry_equiv_pos_as_xyz
  1  'x, y, z'
loop_
 _atom_site_type_symbol
 _atom_site_label
 _atom_site_symmetry_multiplicity
 _atom_site_fract_x
 _atom_site_fract_y
 _atom_site_fract_z
 _atom_site_occupancy
  Li  Li0  1  0.99560987  0.63050298  0.08085064  1
  Li  Li1  1  0.86949769  0.49560965  0.41914882  1
  Li  Li2  1  0.99560874  0.13050289  0.16914776  1
  Li  Li3  1  0.00439173  0.36949735  0.08085239  1
  Li  Li4  1  0.13050247  0.50438802  0.41914997  1
  Li  Li5  1  0.36949739  0.49561137  0.33085028  1
  Li  Li6  1  0.63050250  0.50439082  0.33085188  1
  Li  Li7  1  0.86949729  0.99561023  0.83084949  1
  Li  Li8  1  0.13050242  0.00439196  0.83085127  1
  Li  Li9  1  0.50438863  0.86949741  0.58085103  1
  Li  Li10  1  0.63050295  0.00438985  0.91914952  1
  Li  Li11  1  0.49560991  0.13050249  0.58085160  1
  Li  Li12  1  0.36949742  0.99560818  0.91914844  1
  Li  Li13  1  0.49561092  0.63050228  0.66914939  1
  Li  Li14  1  0.50439045  0.36949744  0.66914774  1
  Li  Li15  1  0.00438959  0.86949703  0.16914900  1
  I  I16  1  0.50417292  0.80480074  -0.09985417  1
  I  I17  1  0.69519861  0.00417275  0.59985460  1
  I  I18  1  0.50417314  0.30480218  0.34985466  1
  I  I19  1  0.49582665  0.19519805  -0.09985433  1
  I  I20  1  0.30480089  0.99582708  0.59985468  1
  I  I21  1  0.19519881  0.00417284  0.15014585  1
  I  I22  1  0.80480123  0.99582687  0.15014535  1
  I  I23  1  0.69519883  0.50417316  0.65014559  1
  I  I24  1  0.30480160  0.49582656  0.65014503  1
  I  I25  1  0.99582760  0.69519794  0.40014520  1
  I  I26  1  0.80480124  0.49582687  0.09985442  1
  I  I27  1  0.00417197  0.30480063  0.40014473  1
  I  I28  1  0.19519861  0.50417356  0.09985459  1
  I  I29  1  0.00417338  0.80480206  0.84985435  1
  I  I30  1  0.99582707  0.19519948  0.84985477  1
  I  I31  1  0.49582749  0.69519929  0.34985547  1
