# generated using pymatgen
data_LiBr
_symmetry_space_group_name_H-M   'P 1'
_cell_length_a   7.79591091
_cell_length_b   7.79591286
_cell_length_c   11.00676934
_cell_angle_alpha   90.00003873
_cell_angle_beta   89.99999286
_cell_angle_gamma   90.00000684
_symmetry_Int_Tables_number   1
_chemical_formula_structural   LiBr
_chemical_formula_sum   'Li16 Br16'
_cell_volume   668.95007852
_cell_formula_units_Z   16
loop_
 _symmetry_equiv_pos_site_id
 _symmetry_equiv_pos_as_xyz
  1  'x, y, z'
loop_
 _atom_site_type_symbol
 _atom_site_label
 _atom_site_symmetry_multiplicity
 _atom_site_fract_x
 _atom_site_fract_y
 _atom_site_fract_z
 _atom_site_occupancy
  Li  Li0  1  0.75079729  0.49970713  0.34539401  1
  Li  Li1  1  -0.00029342  0.75079481  0.59539427  1
  Li  Li2  1  0.24920595  0.49970608  0.84539402  1
  Li  Li3  1  0.24920259  0.50029279  0.34539310  1
  Li  Li4  1  0.00029362  0.24920492  0.59539417  1
  Li  Li5  1  0.50029351  0.25079298  0.59539283  1
  Li  Li6  1  0.49970638  0.74920324  0.59539304  1
  Li  Li7  1  0.00029400  0.75079494  0.09539219  1
  Li  Li8  1  -0.00029320  0.24920498  0.09539224  1
  Li  Li9  1  0.74920469  0.00029362  0.84539358  1
  Li  Li10  1  0.50029457  0.74920537  0.09539317  1
  Li  Li11  1  0.25079556  -0.00029436  0.84539394  1
  Li  Li12  1  0.49970683  0.25079480  0.09539333  1
  Li  Li13  1  0.74920358  -0.00029252  0.34539381  1
  Li  Li14  1  0.25079759  0.00029376  0.34539417  1
  Li  Li15  1  0.75079399  0.50029418  0.84539441  1
  Br  Br16  1  -0.00024467  0.25009959  0.84455300  1
  Br  Br17  1  0.75009939  -0.00024397  0.09455247  1
  Br  Br18  1  0.00024418  0.25010004  0.34455262  1
  Br  Br19  1  0.00024408  0.74990061  0.84455324  1
  Br  Br20  1  0.24990052  0.00024486  0.09455278  1
  Br  Br21  1  0.74990068  0.49975590  0.09455310  1
  Br  Br22  1  0.25009935  0.50024493  0.09455280  1
  Br  Br23  1  0.24990013  -0.00024454  0.59455319  1
  Br  Br24  1  0.75009911  0.00024425  0.59455298  1
  Br  Br25  1  0.50024407  0.24990102  0.34455301  1
  Br  Br26  1  0.74989983  0.50024450  0.59455298  1
  Br  Br27  1  0.49975528  0.75009968  0.34455269  1
  Br  Br28  1  0.25009949  0.49975568  0.59455258  1
  Br  Br29  1  0.50024413  0.75010014  0.84455275  1
  Br  Br30  1  0.49975536  0.24990000  0.84455318  1
  Br  Br31  1  -0.00024444  0.74990061  0.34455289  1
