# generated using pymatgen
data_LiBr
_symmetry_space_group_name_H-M   'P 1'
_cell_length_a   16.06162848
_cell_length_b   16.06159424
_cell_length_c   16.06163759
_cell_angle_alpha   89.99968147
_cell_angle_beta   90.00001082
_cell_angle_gamma   89.99991580
_symmetry_Int_Tables_number   1
_chemical_formula_structural   LiBr
_chemical_formula_sum   'Li48 Br48'
_cell_volume   4143.50673143
_cell_formula_units_Z   48
loop_
 _symmetry_equiv_pos_site_id
 _symmetry_equiv_pos_as_xyz
  1  'x, y, z'
loop_
 _atom_site_type_symbol
 _atom_site_label
 _atom_site_symmetry_multiplicity
 _atom_site_fract_x
 _atom_site_fract_y
 _atom_site_fract_z
 _atom_site_occupancy
  Li  Li0  1  0.94902986  0.03236824  0.13853751  1
  Li  Li1  1  0.36146205  0.44903013  0.03236788  1
  Li  Li2  1  0.63853838  0.05096928  0.03236663  1
  Li  Li3  1  0.36146156  0.55096957  0.46763207  1
  Li  Li4  1  0.63853734  0.94903035  0.46763364  1
  Li  Li5  1  0.03236742  0.36146232  0.44903042  1
  Li  Li6  1  0.96763245  0.13853755  0.44903029  1
  Li  Li7  1  0.94903026  0.96763258  0.36146356  1
  Li  Li8  1  0.44903063  0.53236768  0.63853778  1
  Li  Li9  1  0.86146154  0.94903042  0.53236750  1
  Li  Li10  1  0.86146263  0.55096913  0.03236657  1
  Li  Li11  1  0.46763278  0.13853814  0.05096942  1
  Li  Li12  1  0.86146239  0.44903048  0.46763321  1
  Li  Li13  1  0.13853771  0.94903032  0.03236843  1
  Li  Li14  1  0.13853821  0.05096969  0.46763249  1
  Li  Li15  1  0.53236822  0.36146274  0.05097011  1
  Li  Li16  1  0.46763232  0.86146144  0.44903108  1
  Li  Li17  1  0.96763237  0.36146254  0.94903114  1
  Li  Li18  1  0.03236754  0.13853715  0.94902947  1
  Li  Li19  1  0.55096971  0.96763311  0.63853791  1
  Li  Li20  1  0.05097007  0.96763203  0.86146313  1
  Li  Li21  1  0.03236771  0.63853797  0.05096877  1
  Li  Li22  1  0.96763254  0.86146287  0.05097094  1
  Li  Li23  1  0.44903011  0.03236706  0.36146164  1
  Li  Li24  1  0.44903049  0.96763251  0.13853752  1
  Li  Li25  1  0.55097031  0.53236823  0.13853621  1
  Li  Li26  1  0.53236718  0.63853685  0.44902924  1
  Li  Li27  1  0.05096958  0.46763264  0.13853710  1
  Li  Li28  1  0.05096965  0.53236778  0.36146144  1
  Li  Li29  1  0.13853698  0.55096959  0.53236672  1
  Li  Li30  1  0.86146236  0.05096994  0.96763173  1
  Li  Li31  1  0.13853735  0.44903096  0.96763328  1
  Li  Li32  1  0.53236704  0.86146237  0.94903049  1
  Li  Li33  1  0.46763195  0.63853754  0.94903000  1
  Li  Li34  1  0.53236758  0.13853782  0.55096852  1
  Li  Li35  1  0.46763298  0.36146326  0.55097067  1
  Li  Li36  1  0.55096975  0.03236764  0.86146164  1
  Li  Li37  1  0.44902965  0.46763178  0.86146355  1
  Li  Li38  1  0.94903051  0.53236750  0.86146261  1
  Li  Li39  1  0.94903029  0.46763257  0.63853845  1
  Li  Li40  1  0.05096980  0.03236751  0.63853727  1
  Li  Li41  1  0.55096919  0.46763247  0.36146244  1
  Li  Li42  1  0.63853789  0.55096994  0.96763219  1
  Li  Li43  1  0.36146233  0.94903122  0.96763348  1
  Li  Li44  1  0.63853816  0.44903064  0.53236763  1
  Li  Li45  1  0.36146312  0.05096965  0.53236640  1
  Li  Li46  1  0.96763250  0.63853748  0.55096924  1
  Li  Li47  1  0.03236724  0.86146219  0.55097004  1
  Br  Br48  1  0.94174997  0.92632296  0.66029739  1
  Br  Br49  1  0.83970307  0.44175186  0.92632422  1
  Br  Br50  1  0.16029617  0.05824924  0.92632386  1
  Br  Br51  1  0.83970285  0.55824878  0.57367632  1
  Br  Br52  1  0.16029702  0.94174991  0.57367719  1
  Br  Br53  1  0.92632314  0.83970390  0.44175084  1
  Br  Br54  1  0.07367573  0.66029619  0.44175014  1
  Br  Br55  1  0.94175021  0.07367628  0.83970267  1
  Br  Br56  1  0.44175072  0.42632307  0.16029752  1
  Br  Br57  1  0.33970337  0.94175014  0.42632367  1
  Br  Br58  1  0.33970298  0.55824899  0.92632353  1
  Br  Br59  1  0.57367655  0.66029625  0.05824875  1
  Br  Br60  1  0.33970330  0.44175035  0.57367741  1
  Br  Br61  1  0.66029728  0.94175101  0.92632353  1
  Br  Br62  1  0.66029634  0.05824904  0.57367602  1
  Br  Br63  1  0.42632389  0.83970390  0.05824953  1
  Br  Br64  1  0.57367661  0.33970325  0.44175158  1
  Br  Br65  1  0.07367653  0.83970335  0.94175171  1
  Br  Br66  1  0.92632352  0.66029766  0.94175054  1
  Br  Br67  1  0.55825001  0.07367599  0.16029705  1
  Br  Br68  1  0.05825012  0.07367691  0.33970371  1
  Br  Br69  1  0.92632332  0.16029612  0.05824867  1
  Br  Br70  1  0.07367643  0.33970290  0.05824957  1
  Br  Br71  1  0.44175073  0.92632426  0.83970276  1
  Br  Br72  1  0.44175067  0.07367662  0.66029590  1
  Br  Br73  1  0.55825010  0.42632409  0.66029744  1
  Br  Br74  1  0.42632400  0.16029577  0.44174870  1
  Br  Br75  1  0.05824913  0.57367579  0.66029643  1
  Br  Br76  1  0.05824837  0.42632409  0.83970266  1
  Br  Br77  1  0.66029623  0.55824961  0.42632293  1
  Br  Br78  1  0.33970424  0.05824942  0.07367606  1
  Br  Br79  1  0.66029681  0.44175088  0.07367611  1
  Br  Br80  1  0.42632340  0.33970373  0.94175093  1
  Br  Br81  1  0.57367698  0.16029685  0.94175018  1
  Br  Br82  1  0.42632313  0.66029692  0.55824885  1
  Br  Br83  1  0.57367621  0.83970308  0.55825066  1
  Br  Br84  1  0.55824917  0.92632282  0.33970283  1
  Br  Br85  1  0.44174970  0.57367592  0.33970332  1
  Br  Br86  1  0.94175045  0.42632387  0.33970303  1
  Br  Br87  1  0.94175182  0.57367627  0.16029764  1
  Br  Br88  1  0.05824955  0.92632356  0.16029783  1
  Br  Br89  1  0.55824925  0.57367708  0.83970201  1
  Br  Br90  1  0.16029695  0.55824846  0.07367579  1
  Br  Br91  1  0.83970314  0.94175055  0.07367651  1
  Br  Br92  1  0.16029667  0.44175067  0.42632361  1
  Br  Br93  1  0.83970375  0.05824990  0.42632334  1
  Br  Br94  1  0.07367694  0.16029608  0.55824994  1
  Br  Br95  1  0.92632375  0.33970275  0.55824968  1
