# generated using pymatgen
data_LiI
_symmetry_space_group_name_H-M   'P 1'
_cell_length_a   5.99496319
_cell_length_b   4.26646098
_cell_length_c   8.53090128
_cell_angle_alpha   90.00196534
_cell_angle_beta   90.00001918
_cell_angle_gamma   90.00011010
_symmetry_Int_Tables_number   1
_chemical_formula_structural   LiI
_chemical_formula_sum   'Li4 I4'
_cell_volume   218.19722066
_cell_formula_units_Z   4
loop_
 _symmetry_equiv_pos_site_id
 _symmetry_equiv_pos_as_xyz
  1  'x, y, z'
loop_
 _atom_site_type_symbol
 _atom_site_label
 _atom_site_symmetry_multiplicity
 _atom_site_fract_x
 _atom_site_fract_y
 _atom_site_fract_z
 _atom_site_occupancy
  Li  Li0  1  0.24875905  0.49915386  0.37411945  1
  Li  Li1  1  0.75123974  -0.00082546  0.12589895  1
  Li  Li2  1  0.25123962  0.50084367  0.87408972  1
  Li  Li3  1  0.74875975  0.00083614  0.62588638  1
  I  I4  1  0.75029056  0.50001548  0.37526084  1
  I  I5  1  0.24971042  0.00002222  0.12472315  1
  I  I6  1  0.74970657  0.49997559  0.87528324  1
  I  I7  1  0.25029429  -0.00002149  0.62473826  1
