# generated using pymatgen
data_NaI
_symmetry_space_group_name_H-M   'P 1'
_cell_length_a   12.82122540
_cell_length_b   12.82123059
_cell_length_c   8.45778978
_cell_angle_alpha   90.00021679
_cell_angle_beta   90.00053638
_cell_angle_gamma   90.00003402
_symmetry_Int_Tables_number   1
_chemical_formula_structural   NaI
_chemical_formula_sum   'Na16 I16'
_cell_volume   1390.32436142
_cell_formula_units_Z   16
loop_
 _symmetry_equiv_pos_site_id
 _symmetry_equiv_pos_as_xyz
  1  'x, y, z'
loop_
 _atom_site_type_symbol
 _atom_site_label
 _atom_site_symmetry_multiplicity
 _atom_site_fract_x
 _atom_site_fract_y
 _atom_site_fract_z
 _atom_site_occupancy
  Na  Na0  1  0.13227958  0.54918656  0.91949861  1
  Na  Na1  1  0.04918876  0.13228162  0.16949693  1
  Na  Na2  1  0.86771658  0.54919296  0.41948853  1
  Na  Na3  1  0.86772131  0.45081021  0.91949125  1
  Na  Na4  1  0.95081257  0.86772312  0.16949413  1
  Na  Na5  1  0.45081352  0.63227744  0.16949834  1
  Na  Na6  1  0.54919160  0.36771743  0.16949162  1
  Na  Na7  1  0.95081420  0.13227602  0.66949971  1
  Na  Na8  1  0.04919262  0.86771600  0.66949087  1
  Na  Na9  1  0.36772223  0.95081116  0.41949235  1
  Na  Na10  1  0.45081255  0.36772239  0.66949359  1
  Na  Na11  1  0.63228069  0.04918772  0.41949755  1
  Na  Na12  1  0.54918865  0.63228093  0.66949712  1
  Na  Na13  1  0.36771672  0.04919217  0.91948921  1
  Na  Na14  1  0.63227680  0.95081339  0.91950006  1
  Na  Na15  1  0.13227697  0.45081362  0.41950033  1
  I  I16  1  0.94817504  0.34391502  0.23876303  1
  I  I17  1  0.84391511  0.94817572  0.48876100  1
  I  I18  1  0.05182304  0.34391025  0.73876550  1
  I  I19  1  0.05182134  0.65608834  0.23876447  1
  I  I20  1  0.15608814  0.05182198  0.48876291  1
  I  I21  1  0.65608657  0.44817743  0.48876178  1
  I  I22  1  0.34391267  0.55182353  0.48876013  1
  I  I23  1  0.15608588  0.94817814  -0.01123920  1
  I  I24  1  0.84391179  0.05182434  -0.01123792  1
  I  I25  1  0.55182104  0.15608752  0.73876365  1
  I  I26  1  0.65608815  0.55182263  -0.01123591  1
  I  I27  1  0.44817452  0.84391416  0.73876395  1
  I  I28  1  0.34391509  0.44817658  -0.01124089  1
  I  I29  1  0.55182334  0.84391095  0.23876606  1
  I  I30  1  0.44817659  0.15608563  0.23876030  1
  I  I31  1  0.94817634  0.65608506  0.73876046  1
