# generated using pymatgen
data_LiI
_symmetry_space_group_name_H-M   'P 1'
_cell_length_a   14.56057206
_cell_length_b   14.56061382
_cell_length_c   14.56057711
_cell_angle_alpha   89.99999199
_cell_angle_beta   89.99980075
_cell_angle_gamma   89.99999074
_symmetry_Int_Tables_number   1
_chemical_formula_structural   LiI
_chemical_formula_sum   'Li24 I24'
_cell_volume   3087.00057296
_cell_formula_units_Z   24
loop_
 _symmetry_equiv_pos_site_id
 _symmetry_equiv_pos_as_xyz
  1  'x, y, z'
loop_
 _atom_site_type_symbol
 _atom_site_label
 _atom_site_symmetry_multiplicity
 _atom_site_fract_x
 _atom_site_fract_y
 _atom_site_fract_z
 _atom_site_occupancy
  Li  Li0  1  0.35232471  0.12966112  0.26037482  1
  Li  Li1  1  0.01023096  0.37962803  0.89773759  1
  Li  Li2  1  0.23962521  0.64767477  0.62966170  1
  Li  Li3  1  0.64767486  0.62966073  0.23962484  1
  Li  Li4  1  0.98976937  0.87962793  0.60226119  1
  Li  Li5  1  0.87033891  0.76037447  0.14767335  1
  Li  Li6  1  0.37033930  0.73962529  0.85232632  1
  Li  Li7  1  0.62966104  0.23962500  0.64767567  1
  Li  Li8  1  0.12966024  0.26037514  0.35232477  1
  Li  Li9  1  0.14767511  0.87033962  0.76037588  1
  Li  Li10  1  0.51023084  0.12037262  0.10226262  1
  Li  Li11  1  0.85232556  0.37033884  0.73962478  1
  Li  Li12  1  0.48976932  0.62037216  0.39773865  1
  Li  Li13  1  0.37962788  0.89773870  0.01023031  1
  Li  Li14  1  0.73962536  0.85232469  0.37033880  1
  Li  Li15  1  0.12037103  0.10226217  0.51023104  1
  Li  Li16  1  0.26037515  0.35232482  0.12965988  1
  Li  Li17  1  0.87962782  0.60226128  0.98976918  1
  Li  Li18  1  0.76037565  0.14767485  0.87033921  1
  Li  Li19  1  0.62037185  0.39773782  0.48976963  1
  Li  Li20  1  0.60226175  0.98976907  0.87962801  1
  Li  Li21  1  0.10226142  0.51023054  0.12037188  1
  Li  Li22  1  0.89773720  0.01022953  0.37962814  1
  Li  Li23  1  0.39773830  0.48976967  0.62037231  1
  I  I24  1  0.72877453  0.66220784  0.07808000  1
  I  I25  1  0.82813364  0.91213878  0.52122112  1
  I  I26  1  0.42191941  0.27122579  0.16220845  1
  I  I27  1  0.27122433  0.16220927  0.42192013  1
  I  I28  1  0.17186642  0.41213918  -0.02122176  1
  I  I29  1  0.33779143  0.57807981  0.77122515  1
  I  I30  1  -0.16220829  0.92192024  0.22877502  1
  I  I31  1  0.16220853  0.42191949  0.27122503  1
  I  I32  1  0.66220861  0.07808011  0.72877430  1
  I  I33  1  0.77122515  0.33779133  0.57807966  1
  I  I34  1  0.32813383  0.58786045  0.47877934  1
  I  I35  1  0.22877480  -0.16220788  0.92191963  1
  I  I36  1  0.67186668  0.08786131  0.02122092  1
  I  I37  1  0.91213954  0.52122054  0.82813331  1
  I  I38  1  0.92191968  0.22877411  -0.16220919  1
  I  I39  1  0.58786104  0.47877880  0.32813392  1
  I  I40  1  0.07808051  0.72877442  0.66220845  1
  I  I41  1  0.41213949  -0.02122020  0.17186692  1
  I  I42  1  0.57808049  0.77122605  0.33779175  1
  I  I43  1  0.08786063  0.02122164  0.67186641  1
  I  I44  1  -0.02122068  0.17186691  0.41213944  1
  I  I45  1  0.47878000  0.32813307  0.58786151  1
  I  I46  1  0.52122080  0.82813325  0.91213944  1
  I  I47  1  0.02122062  0.67186682  0.08786048  1
