# generated using pymatgen
data_LiI
_symmetry_space_group_name_H-M   'P 1'
_cell_length_a   7.61046785
_cell_length_b   7.60843746
_cell_length_c   9.56235452
_cell_angle_alpha   90.00064261
_cell_angle_beta   89.99899058
_cell_angle_gamma   120.02454712
_symmetry_Int_Tables_number   1
_chemical_formula_structural   LiI
_chemical_formula_sum   'Li6 I6'
_cell_volume   479.39646394
_cell_formula_units_Z   6
loop_
 _symmetry_equiv_pos_site_id
 _symmetry_equiv_pos_as_xyz
  1  'x, y, z'
loop_
 _atom_site_type_symbol
 _atom_site_label
 _atom_site_symmetry_multiplicity
 _atom_site_fract_x
 _atom_site_fract_y
 _atom_site_fract_z
 _atom_site_occupancy
  Li  Li0  1  0.78769317  0.39664342  0.08402196  1
  Li  Li1  1  0.39087988  0.78764025  0.25054430  1
  Li  Li2  1  0.60911393  0.21235360  0.75054254  1
  Li  Li3  1  0.39659745  0.60878717  0.91730746  1
  Li  Li4  1  0.60340861  0.39122035  0.41730545  1
  Li  Li5  1  0.21230568  0.60335626  0.58402206  1
  I  I6  1  0.49670555  0.00212736  0.00123958  1
  I  I7  1  0.49445214  0.49656730  0.16798166  1
  I  I8  1  0.50556452  0.50344747  0.66798231  1
  I  I9  1  0.00218768  0.50559061  0.83463299  1
  I  I10  1  -0.00219482  0.49440172  0.33463160  1
  I  I11  1  0.50328621  -0.00213551  0.50123665  1
