# generated using pymatgen
data_NaI
_symmetry_space_group_name_H-M   'P 1'
_cell_length_a   9.24005698
_cell_length_b   9.24013587
_cell_length_c   13.04143700
_cell_angle_alpha   89.99970984
_cell_angle_beta   89.99953247
_cell_angle_gamma   90.00015926
_symmetry_Int_Tables_number   1
_chemical_formula_structural   NaI
_chemical_formula_sum   'Na16 I16'
_cell_volume   1113.46983041
_cell_formula_units_Z   16
loop_
 _symmetry_equiv_pos_site_id
 _symmetry_equiv_pos_as_xyz
  1  'x, y, z'
loop_
 _atom_site_type_symbol
 _atom_site_label
 _atom_site_symmetry_multiplicity
 _atom_site_fract_x
 _atom_site_fract_y
 _atom_site_fract_z
 _atom_site_occupancy
  Na  Na0  1  0.74937703  0.50071419  0.37520438  1
  Na  Na1  1  0.50071643  0.25062123  0.62479523  1
  Na  Na2  1  0.74937640  0.49928297  0.87520492  1
  Na  Na3  1  0.00071604  0.75062597  0.12479546  1
  Na  Na4  1  0.24937593  0.99928350  0.37520462  1
  Na  Na5  1  0.99928560  0.24938035  0.12479779  1
  Na  Na6  1  0.24937571  0.00071449  0.87520396  1
  Na  Na7  1  0.75062154  0.99928344  0.87520306  1
  Na  Na8  1  0.99928486  0.75062088  0.62479607  1
  Na  Na9  1  0.75062166  0.00071504  0.37520231  1
  Na  Na10  1  0.00071677  0.24937683  0.62479669  1
  Na  Na11  1  0.25062282  0.49928383  0.37520283  1
  Na  Na12  1  0.49928606  0.74937630  0.62479781  1
  Na  Na13  1  0.49928564  0.25062433  0.12479551  1
  Na  Na14  1  0.25062201  0.50071461  0.87520235  1
  Na  Na15  1  0.50071695  0.74938020  0.12479712  1
  I  I16  1  -0.00040069  0.74979328  0.87490994  1
  I  I17  1  0.74979477  0.00040228  0.12508967  1
  I  I18  1  -0.00040046  0.25020583  0.37491026  1
  I  I19  1  0.24979511  0.50039913  0.62508952  1
  I  I20  1  0.49959954  0.75020502  0.87491048  1
  I  I21  1  0.75020618  0.49959883  0.62509040  1
  I  I22  1  0.49960037  0.24979431  0.37490953  1
  I  I23  1  0.50039975  0.75020603  0.37491009  1
  I  I24  1  0.75020570  0.50040133  0.12509042  1
  I  I25  1  0.50039922  0.24979313  0.87490958  1
  I  I26  1  0.24979450  0.49960218  0.12508996  1
  I  I27  1  0.00039895  0.25020530  0.87490981  1
  I  I28  1  0.25020565  -0.00039723  0.12509025  1
  I  I29  1  0.25020627  0.00039869  0.62509013  1
  I  I30  1  0.00039874  0.74979433  0.37490976  1
  I  I31  1  0.74979493  -0.00040058  0.62509010  1
