# generated using pymatgen
data_LiBr
_symmetry_space_group_name_H-M   'P 1'
_cell_length_a   12.02411087
_cell_length_b   12.02409160
_cell_length_c   7.08416436
_cell_angle_alpha   90.00217987
_cell_angle_beta   89.99814559
_cell_angle_gamma   120.00243568
_symmetry_Int_Tables_number   1
_chemical_formula_structural   LiBr
_chemical_formula_sum   'Li18 Br18'
_cell_volume   886.98004385
_cell_formula_units_Z   18
loop_
 _symmetry_equiv_pos_site_id
 _symmetry_equiv_pos_as_xyz
  1  'x, y, z'
loop_
 _atom_site_type_symbol
 _atom_site_label
 _atom_site_symmetry_multiplicity
 _atom_site_fract_x
 _atom_site_fract_y
 _atom_site_fract_z
 _atom_site_occupancy
  Li  Li0  1  0.49768982  0.37336367  0.12100615  1
  Li  Li1  1  0.49773089  0.12435386  0.62097140  1
  Li  Li2  1  0.96103967  0.17032120  0.29176827  1
  Li  Li3  1  0.20928689  0.03897225  0.29175703  1
  Li  Li4  1  0.29381923  0.45749787  0.45567361  1
  Li  Li5  1  0.62662523  0.12432761  0.12098101  1
  Li  Li6  1  0.20926962  0.17029631  0.79176438  1
  Li  Li7  1  0.96102865  0.79072335  0.79174252  1
  Li  Li8  1  0.87564687  0.50226935  0.12096295  1
  Li  Li9  1  0.87567108  0.37337079  0.62098083  1
  Li  Li10  1  0.82967788  0.03895799  0.79176995  1
  Li  Li11  1  0.82969914  0.79072521  0.29175885  1
  Li  Li12  1  0.54249263  0.83630292  0.45565056  1
  Li  Li13  1  0.54250513  0.70618285  0.95567454  1
  Li  Li14  1  0.62663963  0.50231112  0.62100894  1
  Li  Li15  1  0.29382254  0.83632632  0.95565373  1
  Li  Li16  1  0.16366302  0.70617107  0.45566425  1
  Li  Li17  1  0.16369867  0.45750915  0.95565537  1
  Br  Br18  1  0.50276511  0.87484115  0.11501306  1
  Br  Br19  1  0.50275537  0.62791794  0.61504311  1
  Br  Br20  1  0.45876919  0.16443576  0.28102678  1
  Br  Br21  1  0.70566913  0.54123077  0.28104196  1
  Br  Br22  1  0.79187042  0.96161347  0.45010276  1
  Br  Br23  1  0.12515079  0.62791709  0.11501826  1
  Br  Br24  1  0.70568093  0.16445241  0.78104535  1
  Br  Br25  1  0.45876802  0.29433220  0.78104372  1
  Br  Br26  1  0.37208473  0.49724860  0.11504327  1
  Br  Br27  1  0.37208006  0.87484887  0.61500934  1
  Br  Br28  1  0.83557176  0.54123618  0.78101927  1
  Br  Br29  1  0.83554606  0.29431897  0.28104408  1
  Br  Br30  1  0.03839292  0.83027295  0.45009821  1
  Br  Br31  1  0.03838499  0.20813000  0.95010460  1
  Br  Br32  1  0.12515895  0.49723320  0.61501913  1
  Br  Br33  1  0.79187314  0.83025523  0.95010182  1
  Br  Br34  1  0.16974422  0.20812729  0.45010463  1
  Br  Br35  1  0.16972759  0.96160503  0.95010444  1
