# generated using pymatgen
data_LiCl
_symmetry_space_group_name_H-M   'P 1'
_cell_length_a   4.43180270
_cell_length_b   4.43954934
_cell_length_c   15.50646636
_cell_angle_alpha   89.98872896
_cell_angle_beta   90.00312110
_cell_angle_gamma   90.00029994
_symmetry_Int_Tables_number   1
_chemical_formula_structural   LiCl
_chemical_formula_sum   'Li8 Cl8'
_cell_volume   305.09292522
_cell_formula_units_Z   8
loop_
 _symmetry_equiv_pos_site_id
 _symmetry_equiv_pos_as_xyz
  1  'x, y, z'
loop_
 _atom_site_type_symbol
 _atom_site_label
 _atom_site_symmetry_multiplicity
 _atom_site_fract_x
 _atom_site_fract_y
 _atom_site_fract_z
 _atom_site_occupancy
  Li  Li0  1  0.49380126  0.49949919  0.87548444  1
  Li  Li1  1  0.49932446  0.49388058  0.12506463  1
  Li  Li2  1  0.99379601  0.00042802  0.87451926  1
  Li  Li3  1  0.50030364  0.50623321  0.62504340  1
  Li  Li4  1  0.00644035  -0.00048171  0.37453153  1
  Li  Li5  1  0.50645397  0.50041204  0.37546568  1
  Li  Li6  1  -0.00063091  0.00615575  0.62493122  1
  Li  Li7  1  0.00026960  0.99382234  0.12496009  1
  Cl  Cl8  1  0.50600042  0.00084408  0.43513921  1
  Cl  Cl9  1  0.00076639  0.50576652  0.56485987  1
  Cl  Cl10  1  0.00596423  0.49912479  0.31485225  1
  Cl  Cl11  1  -0.00092337  0.49439090  0.06488099  1
  Cl  Cl12  1  0.99431737  0.50072629  0.81484677  1
  Cl  Cl13  1  0.49431762  -0.00075180  0.93515974  1
  Cl  Cl14  1  0.50070701  0.99429789  0.18512996  1
  Cl  Cl15  1  0.49909196  0.00565192  0.68513097  1
