# generated using pymatgen
data_LiBr
_symmetry_space_group_name_H-M   'P 1'
_cell_length_a   3.89549424
_cell_length_b   3.89225599
_cell_length_c   11.02761062
_cell_angle_alpha   89.98631423
_cell_angle_beta   90.01927860
_cell_angle_gamma   89.99158715
_symmetry_Int_Tables_number   1
_chemical_formula_structural   LiBr
_chemical_formula_sum   'Li4 Br4'
_cell_volume   167.20349213
_cell_formula_units_Z   4
loop_
 _symmetry_equiv_pos_site_id
 _symmetry_equiv_pos_as_xyz
  1  'x, y, z'
loop_
 _atom_site_type_symbol
 _atom_site_label
 _atom_site_symmetry_multiplicity
 _atom_site_fract_x
 _atom_site_fract_y
 _atom_site_fract_z
 _atom_site_occupancy
  Li  Li0  1  -0.00125545  0.49735873  0.72993117  1
  Li  Li1  1  0.49745885  0.00131271  0.47986659  1
  Li  Li2  1  0.00126272  0.50266042  0.22991806  1
  Li  Li3  1  0.50254479  -0.00131605  -0.02012932  1
  Br  Br4  1  0.50095795  0.00024901  0.23053214  1
  Br  Br5  1  0.00071654  0.49915584  0.98059665  1
  Br  Br6  1  0.49902348  -0.00030375  0.73053442  1
  Br  Br7  1  -0.00070887  0.50088310  0.48058677  1
