# generated using pymatgen
data_LiBr
_symmetry_space_group_name_H-M   'P 1'
_cell_length_a   12.40218009
_cell_length_b   12.40415411
_cell_length_c   12.40276407
_cell_angle_alpha   89.99907921
_cell_angle_beta   89.99895778
_cell_angle_gamma   90.00047185
_symmetry_Int_Tables_number   1
_chemical_formula_structural   LiBr
_chemical_formula_sum   'Li24 Br24'
_cell_volume   1908.02327803
_cell_formula_units_Z   24
loop_
 _symmetry_equiv_pos_site_id
 _symmetry_equiv_pos_as_xyz
  1  'x, y, z'
loop_
 _atom_site_type_symbol
 _atom_site_label
 _atom_site_symmetry_multiplicity
 _atom_site_fract_x
 _atom_site_fract_y
 _atom_site_fract_z
 _atom_site_occupancy
  Li  Li0  1  0.94381970  0.68654157  0.99465299  1
  Li  Li1  1  0.44380557  0.81345679  0.00535858  1
  Li  Li2  1  0.49462451  0.94380024  0.81346445  1
  Li  Li3  1  0.49460960  0.55620314  0.31347464  1
  Li  Li4  1  0.18654379  0.50535524  0.05617531  1
  Li  Li5  1  0.99461518  0.94379099  0.68653728  1
  Li  Li6  1  0.00537475  0.44380523  0.81346554  1
  Li  Li7  1  0.50537319  0.05619211  0.18653243  1
  Li  Li8  1  0.31345814  0.49463247  0.55619768  1
  Li  Li9  1  0.68653780  0.99463856  0.94380440  1
  Li  Li10  1  0.81345660  0.00535671  0.44381864  1
  Li  Li11  1  0.05618418  0.18653290  0.50535504  1
  Li  Li12  1  0.55620804  0.31346352  0.49462351  1
  Li  Li13  1  0.00538580  0.05620396  0.31346399  1
  Li  Li14  1  0.99462730  0.55620274  0.18653393  1
  Li  Li15  1  0.50538865  0.44379340  0.68652867  1
  Li  Li16  1  0.81345516  0.49465267  0.94382448  1
  Li  Li17  1  0.68654473  0.50537155  0.44380701  1
  Li  Li18  1  0.31345937  0.00535903  0.05618749  1
  Li  Li19  1  0.18654139  0.99464086  0.55618493  1
  Li  Li20  1  0.94381482  0.81346482  0.49464800  1
  Li  Li21  1  0.44379500  0.68653363  0.50537859  1
  Li  Li22  1  0.05618117  0.31346453  0.00534844  1
  Li  Li23  1  0.55619076  0.18654050  0.99463727  1
  Br  Br24  1  0.31389056  0.59156230  0.38414838  1
  Br  Br25  1  0.81390230  0.90843032  0.61587995  1
  Br  Br26  1  0.88412939  0.31388634  0.90843805  1
  Br  Br27  1  0.88413743  0.18612640  0.40843457  1
  Br  Br28  1  0.09155919  0.11588397  0.68611387  1
  Br  Br29  1  0.38415536  0.31386075  0.59155849  1
  Br  Br30  1  0.61586004  0.81387666  0.90843179  1
  Br  Br31  1  0.11587178  0.68611999  0.09156021  1
  Br  Br32  1  0.40842651  0.88411295  0.18611299  1
  Br  Br33  1  0.59157247  0.38412898  0.31387711  1
  Br  Br34  1  0.90843357  0.61589482  0.81389067  1
  Br  Br35  1  0.68609624  0.09156399  0.11586500  1
  Br  Br36  1  0.18608978  0.40843151  0.88411102  1
  Br  Br37  1  0.61584652  0.68613510  0.40844245  1
  Br  Br38  1  0.38413997  0.18612239  0.09156759  1
  Br  Br39  1  0.11586303  0.81387270  0.59156483  1
  Br  Br40  1  0.90843717  0.88411615  0.31388844  1
  Br  Br41  1  0.59156876  0.11588586  0.81388094  1
  Br  Br42  1  0.40843240  0.61586980  0.68612699  1
  Br  Br43  1  0.09156767  0.38410979  0.18610949  1
  Br  Br44  1  0.31390355  0.90843503  0.88412898  1
  Br  Br45  1  0.81391114  0.59157240  0.11588735  1
  Br  Br46  1  0.68611353  0.40843601  0.61585471  1
  Br  Br47  1  0.18609645  0.09156862  0.38412283  1
