# generated using pymatgen
data_LiBr
_symmetry_space_group_name_H-M   'P 1'
_cell_length_a   5.38448045
_cell_length_b   5.53132516
_cell_length_c   12.12298774
_cell_angle_alpha   89.99852743
_cell_angle_beta   152.65403069
_cell_angle_gamma   90.00175541
_symmetry_Int_Tables_number   1
_chemical_formula_structural   LiBr
_chemical_formula_sum   'Li4 Br4'
_cell_volume   165.85862647
_cell_formula_units_Z   4
loop_
 _symmetry_equiv_pos_site_id
 _symmetry_equiv_pos_as_xyz
  1  'x, y, z'
loop_
 _atom_site_type_symbol
 _atom_site_label
 _atom_site_symmetry_multiplicity
 _atom_site_fract_x
 _atom_site_fract_y
 _atom_site_fract_z
 _atom_site_occupancy
  Li  Li0  1  0.65038978  0.25284247  0.71649498  1
  Li  Li1  1  0.15039113  0.75284151  0.71649576  1
  Li  Li2  1  0.65038300  0.74715990  0.21650546  1
  Li  Li3  1  0.15038063  0.24715935  0.21650409  1
  Br  Br4  1  0.15241816  0.74883380  0.21755347  1
  Br  Br5  1  0.65241915  0.24883304  0.21755372  1
  Br  Br6  1  0.15236336  0.25116535  0.71754888  1
  Br  Br7  1  0.65236227  0.75116459  0.71754860  1
