# generated using pymatgen
data_LiBr
_symmetry_space_group_name_H-M   'P 1'
_cell_length_a   7.78512244
_cell_length_b   7.78512282
_cell_length_c   11.00905289
_cell_angle_alpha   90.00005436
_cell_angle_beta   90.00003071
_cell_angle_gamma   89.99999611
_symmetry_Int_Tables_number   1
_chemical_formula_structural   LiBr
_chemical_formula_sum   'Li16 Br16'
_cell_volume   667.23815698
_cell_formula_units_Z   16
loop_
 _symmetry_equiv_pos_site_id
 _symmetry_equiv_pos_as_xyz
  1  'x, y, z'
loop_
 _atom_site_type_symbol
 _atom_site_label
 _atom_site_symmetry_multiplicity
 _atom_site_fract_x
 _atom_site_fract_y
 _atom_site_fract_z
 _atom_site_occupancy
  Li  Li0  1  0.50037953  0.74937347  0.52598313  1
  Li  Li1  1  0.24937335  0.50037961  0.77598306  1
  Li  Li2  1  0.49962100  0.74937339  0.02598305  1
  Li  Li3  1  0.49962185  0.25062610  0.52598309  1
  Li  Li4  1  0.75062713  0.49962109  0.77598317  1
  Li  Li5  1  0.25062633  0.00037896  0.77598242  1
  Li  Li6  1  0.74937320  -0.00037961  0.77598382  1
  Li  Li7  1  0.75062621  0.50037812  0.27598209  1
  Li  Li8  1  0.24937315  0.49962078  0.27598359  1
  Li  Li9  1  -0.00037931  0.75062678  0.02598332  1
  Li  Li10  1  0.25062734  -0.00037885  0.27598298  1
  Li  Li11  1  0.00037925  0.24937285  0.02598293  1
  Li  Li12  1  0.74937284  0.00037902  0.27598323  1
  Li  Li13  1  -0.00037923  0.24937448  0.52598316  1
  Li  Li14  1  0.00037866  0.75062690  0.52598154  1
  Li  Li15  1  0.50037842  0.25062664  0.02598140  1
  Br  Br16  1  0.25047679  0.00000121  0.02659741  1
  Br  Br17  1  0.50000084  0.25047694  0.27659740  1
  Br  Br18  1  0.74952321  0.00000118  0.52659752  1
  Br  Br19  1  0.74952275  -0.00000100  0.02659759  1
  Br  Br20  1  0.49999919  0.74952301  0.27659757  1
  Br  Br21  1  -0.00000097  0.75047695  0.27659750  1
  Br  Br22  1  0.00000104  0.24952309  0.27659737  1
  Br  Br23  1  0.49999898  0.25047684  0.77659742  1
  Br  Br24  1  0.50000127  0.74952301  0.77659756  1
  Br  Br25  1  0.24952323  0.49999903  0.52659766  1
  Br  Br26  1  -0.00000112  0.24952296  0.77659762  1
  Br  Br27  1  0.75047713  0.50000101  0.52659741  1
  Br  Br28  1  0.00000083  0.75047704  0.77659751  1
  Br  Br29  1  0.24952316  0.50000134  0.02659748  1
  Br  Br30  1  0.75047694  0.49999880  0.02659757  1
  Br  Br31  1  0.25047702  -0.00000112  0.52659753  1
