# generated using pymatgen
data_LiBr
_symmetry_space_group_name_H-M   'P 1'
_cell_length_a   7.71645445
_cell_length_b   6.69416769
_cell_length_c   6.44661708
_cell_angle_alpha   90.00023279
_cell_angle_beta   90.00002875
_cell_angle_gamma   90.00000172
_symmetry_Int_Tables_number   1
_chemical_formula_structural   LiBr
_chemical_formula_sum   'Li8 Br8'
_cell_volume   333.00155307
_cell_formula_units_Z   8
loop_
 _symmetry_equiv_pos_site_id
 _symmetry_equiv_pos_as_xyz
  1  'x, y, z'
loop_
 _atom_site_type_symbol
 _atom_site_label
 _atom_site_symmetry_multiplicity
 _atom_site_fract_x
 _atom_site_fract_y
 _atom_site_fract_z
 _atom_site_occupancy
  Li  Li0  1  0.87559991  0.74920325  0.50109161  1
  Li  Li1  1  0.87559911  0.75079323  0.00108619  1
  Li  Li2  1  0.37559955  0.75079159  0.49890954  1
  Li  Li3  1  0.62440132  0.25079448  0.00109471  1
  Li  Li4  1  0.12440270  0.24921043  -0.00108608  1
  Li  Li5  1  0.62440115  0.24920555  0.50109310  1
  Li  Li6  1  0.37559916  0.74920940  -0.00109171  1
  Li  Li7  1  0.12439961  0.25079000  0.49890900  1
  Br  Br8  1  0.12525146  0.91577261  0.74970712  1
  Br  Br9  1  0.12525189  0.58423017  0.24970778  1
  Br  Br10  1  0.62525144  0.58423092  0.25029047  1
  Br  Br11  1  0.37474781  0.08422833  0.24970773  1
  Br  Br12  1  0.87474729  0.41576993  0.75029142  1
  Br  Br13  1  0.37474748  0.41576867  0.74970720  1
  Br  Br14  1  0.62525223  0.91577186  0.75029130  1
  Br  Br15  1  0.87474791  0.08422960  0.25029060  1
