# generated using pymatgen
data_LiBr
_symmetry_space_group_name_H-M   'P 1'
_cell_length_a   4.28594213
_cell_length_b   4.28474583
_cell_length_c   9.33886161
_cell_angle_alpha   90.00423898
_cell_angle_beta   90.00546123
_cell_angle_gamma   119.99562266
_symmetry_Int_Tables_number   1
_chemical_formula_structural   LiBr
_chemical_formula_sum   'Li3 Br3'
_cell_volume   148.53030979
_cell_formula_units_Z   3
loop_
 _symmetry_equiv_pos_site_id
 _symmetry_equiv_pos_as_xyz
  1  'x, y, z'
loop_
 _atom_site_type_symbol
 _atom_site_label
 _atom_site_symmetry_multiplicity
 _atom_site_fract_x
 _atom_site_fract_y
 _atom_site_fract_z
 _atom_site_occupancy
  Li  Li0  1  0.33467508  0.33760192  0.01076393  1
  Li  Li1  1  0.66218341  -0.00286516  0.67689174  1
  Li  Li2  1  0.00285620  0.66494167  0.34435371  1
  Br  Br3  1  0.66806293  0.00399833  0.94535063  1
  Br  Br4  1  -0.00382863  0.66431134  0.61223281  1
  Br  Br5  1  0.33605101  0.33201190  0.27893895  1
