# generated using pymatgen
data_NaI
_symmetry_space_group_name_H-M   'P 1'
_cell_length_a   17.42922680
_cell_length_b   17.42923494
_cell_length_c   4.84698975
_cell_angle_alpha   90.00204818
_cell_angle_beta   89.99919997
_cell_angle_gamma   89.99999619
_symmetry_Int_Tables_number   1
_chemical_formula_structural   NaI
_chemical_formula_sum   'Na16 I16'
_cell_volume   1472.40928123
_cell_formula_units_Z   16
loop_
 _symmetry_equiv_pos_site_id
 _symmetry_equiv_pos_as_xyz
  1  'x, y, z'
loop_
 _atom_site_type_symbol
 _atom_site_label
 _atom_site_symmetry_multiplicity
 _atom_site_fract_x
 _atom_site_fract_y
 _atom_site_fract_z
 _atom_site_occupancy
  Na  Na0  1  0.33205910  0.91479037  0.47172729  1
  Na  Na1  1  0.58520936  0.83205869  0.02828493  1
  Na  Na2  1  0.33206395  0.41479460  0.77831385  1
  Na  Na3  1  0.66793625  0.08520535  0.47168225  1
  Na  Na4  1  0.41479372  0.16793607  0.02831555  1
  Na  Na5  1  0.08520601  0.83206425  0.72168613  1
  Na  Na6  1  0.91479051  0.16794103  0.72171901  1
  Na  Na7  1  0.58520641  0.33206370  0.22168614  1
  Na  Na8  1  0.41479057  0.66794169  0.22171718  1
  Na  Na9  1  0.16793593  0.58520538  0.97168271  1
  Na  Na10  1  0.91479377  0.66793591  0.52831257  1
  Na  Na11  1  0.83205922  0.41479056  0.97172561  1
  Na  Na12  1  0.08520959  0.33205845  0.52828022  1
  Na  Na13  1  0.83206383  0.91479470  0.27831895  1
  Na  Na14  1  0.16794135  0.08520981  0.27827149  1
  Na  Na15  1  0.66794045  0.58520923  0.77827538  1
  I  I16  1  0.90909213  0.83547416  0.77630421  1
  I  I17  1  0.66452469  0.40909183  0.72368304  1
  I  I18  1  0.90909393  0.33547391  0.47370575  1
  I  I19  1  0.09090636  0.16452549  0.77629284  1
  I  I20  1  0.33547143  0.59090675  0.72371593  1
  I  I21  1  0.16452770  0.40909313  0.02628217  1
  I  I22  1  0.83547515  0.59090759  0.02631389  1
  I  I23  1  0.66452848  0.90909391  0.52628577  1
  I  I24  1  0.33547562  0.09090765  0.52631913  1
  I  I25  1  0.59090522  0.66452644  0.27629343  1
  I  I26  1  0.83547182  0.09090611  0.22371762  1
  I  I27  1  0.40909238  0.33547467  0.27630013  1
  I  I28  1  0.16452515  0.90909270  0.22368485  1
  I  I29  1  0.40909461  0.83547459  -0.02629304  1
  I  I30  1  0.59090766  0.16452512  -0.02630383  1
  I  I31  1  0.09090765  0.66452617  0.47369888  1
