# generated using pymatgen
data_LiBr
_symmetry_space_group_name_H-M   'P 1'
_cell_length_a   11.42970704
_cell_length_b   11.42973349
_cell_length_c   7.97294117
_cell_angle_alpha   89.99753584
_cell_angle_beta   90.00200509
_cell_angle_gamma   120.00293248
_symmetry_Int_Tables_number   1
_chemical_formula_structural   LiBr
_chemical_formula_sum   'Li18 Br18'
_cell_volume   902.00212224
_cell_formula_units_Z   18
loop_
 _symmetry_equiv_pos_site_id
 _symmetry_equiv_pos_as_xyz
  1  'x, y, z'
loop_
 _atom_site_type_symbol
 _atom_site_label
 _atom_site_symmetry_multiplicity
 _atom_site_fract_x
 _atom_site_fract_y
 _atom_site_fract_z
 _atom_site_occupancy
  Li  Li0  1  0.26091884  0.12893694  -0.08735051  1
  Li  Li1  1  0.26093188  0.13201188  0.41264792  1
  Li  Li2  1  0.20440052  0.40589362  0.07934587  1
  Li  Li3  1  0.20149541  0.79565497  0.07927510  1
  Li  Li4  1  0.53784002  0.46534733  0.24644124  1
  Li  Li5  1  0.87111996  0.13199970  -0.08745614  1
  Li  Li6  1  0.20144769  0.40581426  0.57930856  1
  Li  Li7  1  0.20434682  0.79850802  0.57927656  1
  Li  Li8  1  0.86798626  0.73906359  -0.08735026  1
  Li  Li9  1  0.86799895  0.12887947  0.41254301  1
  Li  Li10  1  0.59410762  0.79560002  0.57934356  1
  Li  Li11  1  0.59418711  0.79855398  0.07930780  1
  Li  Li12  1  0.53464556  0.07243006  0.24645276  1
  Li  Li13  1  0.53464980  0.46215582  0.74643992  1
  Li  Li14  1  0.87105965  0.73907627  0.41265296  1
  Li  Li15  1  0.53778956  0.07242861  0.74640568  1
  Li  Li16  1  0.92757147  0.46220880  0.24641397  1
  Li  Li17  1  0.92757030  0.46535323  0.74646021  1
  Br  Br18  1  0.42583728  0.21170670  0.67211851  1
  Br  Br19  1  0.42587940  0.21416674  0.17207287  1
  Br  Br20  1  0.12171562  0.24117998  0.83875478  1
  Br  Br21  1  0.11943321  0.87832015  0.83866869  1
  Br  Br22  1  0.45498766  0.54727030  0.00582890  1
  Br  Br23  1  0.78824720  0.21410122  0.67199773  1
  Br  Br24  1  0.11940788  0.24111153  0.33870770  1
  Br  Br25  1  0.12167961  0.88056696  0.33866777  1
  Br  Br26  1  0.78583201  0.57411711  0.67208029  1
  Br  Br27  1  0.78589996  0.21175434  0.17199833  1
  Br  Br28  1  0.75882290  0.87828562  0.33875078  1
  Br  Br29  1  0.75889199  0.88059134  0.83870251  1
  Br  Br30  1  0.45269827  0.90767250  0.00581006  1
  Br  Br31  1  0.45273240  0.54501411  0.50582905  1
  Br  Br32  1  0.78829187  0.57415844  0.17212601  1
  Br  Br33  1  0.45494159  0.90769932  0.50581564  1
  Br  Br34  1  0.09230382  0.54506180  0.00582005  1
  Br  Br35  1  0.09232991  0.54730525  0.50581378  1
