# generated using pymatgen
data_LiI
_symmetry_space_group_name_H-M   'P 1'
_cell_length_a   12.23365916
_cell_length_b   12.23366354
_cell_length_c   7.44562541
_cell_angle_alpha   89.99997025
_cell_angle_beta   90.00003496
_cell_angle_gamma   120.00366984
_symmetry_Int_Tables_number   1
_chemical_formula_structural   LiI
_chemical_formula_sum   'Li12 I12'
_cell_volume   965.00299715
_cell_formula_units_Z   12
loop_
 _symmetry_equiv_pos_site_id
 _symmetry_equiv_pos_as_xyz
  1  'x, y, z'
loop_
 _atom_site_type_symbol
 _atom_site_label
 _atom_site_symmetry_multiplicity
 _atom_site_fract_x
 _atom_site_fract_y
 _atom_site_fract_z
 _atom_site_occupancy
  Li  Li0  1  0.65172142  0.53310725  0.60079084  1
  Li  Li1  1  0.11862993  0.65169224  0.60085480  1
  Li  Li2  1  -0.11862650  0.53308681  0.10084567  1
  Li  Li3  1  0.34831078  -0.11863239  0.10085622  1
  Li  Li4  1  0.65169195  0.11863191  0.10085515  1
  Li  Li5  1  0.53312054  0.65172987  0.10079395  1
  Li  Li6  1  0.11862974  0.46691348  0.10083836  1
  Li  Li7  1  0.46688165  0.34826953  0.10078695  1
  Li  Li8  1  0.46691517  0.11863123  0.60083679  1
  Li  Li9  1  0.34827304  0.46688994  0.60078405  1
  Li  Li10  1  -0.11863236  0.34830963  0.60085288  1
  Li  Li11  1  0.53308323  -0.11863051  0.60084463  1
  I  I12  1  0.68717759  0.12661245  0.47080182  1
  I  I13  1  0.56054413  0.68717307  0.47076629  1
  I  I14  1  0.43941939  0.12659994  0.97079208  1
  I  I15  1  0.31283219  0.43946499  0.97075940  1
  I  I16  1  0.68717113  0.56053564  0.97076338  1
  I  I17  1  0.12661543  0.68717903  0.97080033  1
  I  I18  1  0.56058433  0.87339923  0.97079659  1
  I  I19  1  0.87338723  0.31282165  0.97079964  1
  I  I20  1  0.87339601  0.56058085  0.47079803  1
  I  I21  1  0.31282014  0.87338725  0.47079958  1
  I  I22  1  0.43945334  0.31282656  0.47075981  1
  I  I23  1  0.12660051  0.43942034  0.47079314  1
