# generated using pymatgen
data_LiBr
_symmetry_space_group_name_H-M   'P 1'
_cell_length_a   6.77838327
_cell_length_b   3.92027172
_cell_length_c   6.61651584
_cell_angle_alpha   89.99999809
_cell_angle_beta   110.28823513
_cell_angle_gamma   90.00002126
_symmetry_Int_Tables_number   1
_chemical_formula_structural   LiBr
_chemical_formula_sum   'Li4 Br4'
_cell_volume   164.91343478
_cell_formula_units_Z   4
loop_
 _symmetry_equiv_pos_site_id
 _symmetry_equiv_pos_as_xyz
  1  'x, y, z'
loop_
 _atom_site_type_symbol
 _atom_site_label
 _atom_site_symmetry_multiplicity
 _atom_site_fract_x
 _atom_site_fract_y
 _atom_site_fract_z
 _atom_site_occupancy
  Li  Li0  1  0.58869571  0.75037638  0.08914616  1
  Li  Li1  1  0.08870099  0.25038874  0.08913423  1
  Li  Li2  1  0.58869492  0.24961635  0.58914007  1
  Li  Li3  1  0.08869872  0.74961867  0.58913962  1
  Br  Br4  1  0.34008627  0.75069622  0.33916285  1
  Br  Br5  1  0.84008971  0.25070264  0.33916371  1
  Br  Br6  1  0.34008669  0.24930374  0.83916414  1
  Br  Br7  1  0.84008711  0.74929725  0.83916243  1
