# generated using pymatgen
data_LiBr
_symmetry_space_group_name_H-M   'P 1'
_cell_length_a   13.80622251
_cell_length_b   5.32717843
_cell_length_c   10.66135937
_cell_angle_alpha   90.00000062
_cell_angle_beta   90.00112141
_cell_angle_gamma   89.99998445
_symmetry_Int_Tables_number   1
_chemical_formula_structural   LiBr
_chemical_formula_sum   'Li16 Br16'
_cell_volume   784.12390553
_cell_formula_units_Z   16
loop_
 _symmetry_equiv_pos_site_id
 _symmetry_equiv_pos_as_xyz
  1  'x, y, z'
loop_
 _atom_site_type_symbol
 _atom_site_label
 _atom_site_symmetry_multiplicity
 _atom_site_fract_x
 _atom_site_fract_y
 _atom_site_fract_z
 _atom_site_occupancy
  Li  Li0  1  0.83031487  0.74629966  0.87475270  1
  Li  Li1  1  0.16968778  0.75370058  0.87474532  1
  Li  Li2  1  0.16968602  0.74629945  0.37474652  1
  Li  Li3  1  0.66968516  0.25370088  0.37474474  1
  Li  Li4  1  0.66968772  0.24630000  0.87474297  1
  Li  Li5  1  0.66968378  0.74629967  0.12524675  1
  Li  Li6  1  0.33031221  0.24629930  0.37475168  1
  Li  Li7  1  0.33031126  0.75370063  0.12525549  1
  Li  Li8  1  0.33031503  0.25370027  0.87475277  1
  Li  Li9  1  0.66968867  0.75370036  0.62524836  1
  Li  Li10  1  0.33031602  0.74629914  0.62525480  1
  Li  Li11  1  0.83031522  0.25370000  0.62525497  1
  Li  Li12  1  0.16969059  0.24629957  0.62524776  1
  Li  Li13  1  0.83031028  0.75370048  0.37475192  1
  Li  Li14  1  0.16968512  0.25370008  0.12524772  1
  Li  Li15  1  0.83031029  0.24630005  0.12525570  1
  Br  Br16  1  0.85684272  0.75195180  0.62511324  1
  Br  Br17  1  0.14316145  0.74804808  0.62510919  1
  Br  Br18  1  0.14315722  0.75195164  0.12510843  1
  Br  Br19  1  0.64315696  0.24804855  0.12510721  1
  Br  Br20  1  0.64316086  0.25195186  0.62510805  1
  Br  Br21  1  0.64315695  0.75195210  0.37488653  1
  Br  Br22  1  0.35683951  0.25195162  0.12511438  1
  Br  Br23  1  0.35684010  0.74804797  0.37489127  1
  Br  Br24  1  0.35684382  0.24804784  0.62511353  1
  Br  Br25  1  0.64315968  0.74804858  0.87488502  1
  Br  Br26  1  0.35684220  0.75195153  0.87489261  1
  Br  Br27  1  0.85684187  0.24804840  0.87489222  1
  Br  Br28  1  0.14316031  0.25195174  0.87488569  1
  Br  Br29  1  0.85683877  0.74804838  0.12511402  1
  Br  Br30  1  0.14315816  0.24804789  0.37488744  1
  Br  Br31  1  0.85683940  0.25195194  0.37489100  1
