# generated using pymatgen
data_LiI
_symmetry_space_group_name_H-M   'P 1'
_cell_length_a   12.14240665
_cell_length_b   12.14317293
_cell_length_c   10.73003432
_cell_angle_alpha   90.00870093
_cell_angle_beta   89.99207866
_cell_angle_gamma   120.04307329
_symmetry_Int_Tables_number   1
_chemical_formula_structural   LiI
_chemical_formula_sum   'Li18 I18'
_cell_volume   1369.55673245
_cell_formula_units_Z   18
loop_
 _symmetry_equiv_pos_site_id
 _symmetry_equiv_pos_as_xyz
  1  'x, y, z'
loop_
 _atom_site_type_symbol
 _atom_site_label
 _atom_site_symmetry_multiplicity
 _atom_site_fract_x
 _atom_site_fract_y
 _atom_site_fract_z
 _atom_site_occupancy
  Li  Li0  1  -0.02122515  0.66460860  0.16656007  1
  Li  Li1  1  0.98072251  0.31215204  0.16659393  1
  Li  Li2  1  0.02122487  0.33538748  0.83343979  1
  Li  Li3  1  0.68587826  0.02129707  0.16659317  1
  Li  Li4  1  0.33135040  0.01920092  0.16650926  1
  Li  Li5  1  0.66452683  0.68581543  0.83331970  1
  Li  Li6  1  0.00173140  0.64740974  0.49998667  1
  Li  Li7  1  0.33547216  0.31418556  0.16668148  1
  Li  Li8  1  0.31412134  -0.02129560  0.83340526  1
  Li  Li9  1  -0.00172948  0.35258815  0.50001382  1
  Li  Li10  1  0.66864572  0.98079742  0.83349024  1
  Li  Li11  1  0.35266858  0.35432821  0.49990419  1
  Li  Li12  1  0.64733445  0.64567552  0.50009665  1
  Li  Li13  1  0.01927438  0.68784750  0.83340556  1
  Li  Li14  1  0.64572969  -0.00166262  0.49986016  1
  Li  Li15  1  0.35427139  0.00166181  0.50013876  1
  Li  Li16  1  0.68779803  0.66857791  0.16665708  1
  Li  Li17  1  0.31220362  0.33142477  0.83334476  1
  I  I18  1  0.79568466  0.59404012  0.97998479  1
  I  I19  1  0.86857501  0.12897340  0.35303495  1
  I  I20  1  0.20431383  0.40595909  0.02001564  1
  I  I21  1  0.79811171  0.20444252  0.98010950  1
  I  I22  1  0.26067675  0.13146191  0.35317927  1
  I  I23  1  0.59396057  0.79815781  0.02002198  1
  I  I24  1  0.07254720  0.53518046  0.31336215  1
  I  I25  1  0.40603775  0.20184241  0.97997861  1
  I  I26  1  0.20188579  0.79555723  0.01988920  1
  I  I27  1  0.92745391  0.46481761  0.68663862  1
  I  I28  1  0.73932580  0.86854012  0.64682213  1
  I  I29  1  0.46477127  0.53761171  0.31349798  1
  I  I30  1  0.53523040  0.46239090  0.68650308  1
  I  I31  1  0.13142573  0.87102574  0.64696261  1
  I  I32  1  0.46250982  0.92752949  0.31335605  1
  I  I33  1  0.53748930  0.07247052  0.68664153  1
  I  I34  1  0.87091064  0.73925473  0.35318531  1
  I  I35  1  0.12909084  0.26074430  0.64681604  1
