# generated using pymatgen
data_NaI
_symmetry_space_group_name_H-M   'P 1'
_cell_length_a   13.05934219
_cell_length_b   6.53212326
_cell_length_c   6.52799472
_cell_angle_alpha   89.99995215
_cell_angle_beta   89.99998149
_cell_angle_gamma   90.00023525
_symmetry_Int_Tables_number   1
_chemical_formula_structural   NaI
_chemical_formula_sum   'Na8 I8'
_cell_volume   556.87210961
_cell_formula_units_Z   8
loop_
 _symmetry_equiv_pos_site_id
 _symmetry_equiv_pos_as_xyz
  1  'x, y, z'
loop_
 _atom_site_type_symbol
 _atom_site_label
 _atom_site_symmetry_multiplicity
 _atom_site_fract_x
 _atom_site_fract_y
 _atom_site_fract_z
 _atom_site_occupancy
  Na  Na0  1  0.12509164  0.50010328  0.74961484  1
  Na  Na1  1  0.12509167  -0.00010344  0.24961639  1
  Na  Na2  1  0.62509269  0.49989540  0.75038416  1
  Na  Na3  1  0.37490713  -0.00010478  0.74961741  1
  Na  Na4  1  -0.12509166  0.00010349  0.75038361  1
  Na  Na5  1  0.37490735  0.50010460  0.24961583  1
  Na  Na6  1  0.62509277  0.00010480  0.25038257  1
  Na  Na7  1  -0.12509168  0.49989678  0.25038514  1
  I  I8  1  0.87519996  0.50026763  0.75026323  1
  I  I9  1  0.87519995  -0.00026778  0.25026267  1
  I  I10  1  0.37520050  0.49973121  0.74973463  1
  I  I11  1  0.62479942  -0.00026874  0.75026504  1
  I  I12  1  0.12480007  0.00026767  0.74973735  1
  I  I13  1  0.62479953  0.50026879  0.25026536  1
  I  I14  1  0.37520062  0.00026876  0.24973494  1
  I  I15  1  0.12480007  0.49973233  0.24973682  1
