# generated using pymatgen
data_KI
_symmetry_space_group_name_H-M   'P 1'
_cell_length_a   4.98178233
_cell_length_b   8.58674920
_cell_length_c   8.69282890
_cell_angle_alpha   90.00001193
_cell_angle_beta   89.91852279
_cell_angle_gamma   90.00000518
_symmetry_Int_Tables_number   1
_chemical_formula_structural   KI
_chemical_formula_sum   'K4 I4'
_cell_volume   371.85550825
_cell_formula_units_Z   4
loop_
 _symmetry_equiv_pos_site_id
 _symmetry_equiv_pos_as_xyz
  1  'x, y, z'
loop_
 _atom_site_type_symbol
 _atom_site_label
 _atom_site_symmetry_multiplicity
 _atom_site_fract_x
 _atom_site_fract_y
 _atom_site_fract_z
 _atom_site_occupancy
  K  K0  1  0.24503391  0.75054651  0.49915725  1
  K  K1  1  0.75496609  0.25054641  0.00084308  1
  K  K2  1  0.75496609  0.24945349  0.50084275  1
  K  K3  1  0.24503391  0.74945359  -0.00084308  1
  I  I4  1  0.25483791  0.41670014  0.25068355  1
  I  I5  1  0.74516204  0.91669990  0.24931649  1
  I  I6  1  0.74516209  0.58329986  0.74931645  1
  I  I7  1  0.25483796  0.08330010  0.75068351  1
