# generated using pymatgen
data_NaI
_symmetry_space_group_name_H-M   'P 1'
_cell_length_a   6.52925284
_cell_length_b   6.52515348
_cell_length_c   9.20192515
_cell_angle_alpha   89.99996662
_cell_angle_beta   134.89089419
_cell_angle_gamma   90.00002203
_symmetry_Int_Tables_number   1
_chemical_formula_structural   NaI
_chemical_formula_sum   'Na4 I4'
_cell_volume   277.74314657
_cell_formula_units_Z   4
loop_
 _symmetry_equiv_pos_site_id
 _symmetry_equiv_pos_as_xyz
  1  'x, y, z'
loop_
 _atom_site_type_symbol
 _atom_site_label
 _atom_site_symmetry_multiplicity
 _atom_site_fract_x
 _atom_site_fract_y
 _atom_site_fract_z
 _atom_site_occupancy
  Na  Na0  1  0.24961956  0.75011953  -0.00101378  1
  Na  Na1  1  0.75037964  0.25011955  0.50102142  1
  Na  Na2  1  0.75038051  0.24988047  0.00101369  1
  Na  Na3  1  0.24962029  0.74988044  0.49897868  1
  I  I4  1  0.74953669  0.74989401  0.49953930  1
  I  I5  1  0.25046869  0.24989407  0.00046459  1
  I  I6  1  0.25046322  0.25010600  0.50046070  1
  I  I7  1  0.74953140  0.75010593  -0.00046461  1
