# generated using pymatgen
data_LiBr
_symmetry_space_group_name_H-M   'P 1'
_cell_length_a   14.69727706
_cell_length_b   4.22325767
_cell_length_c   13.97353682
_cell_angle_alpha   90.00005899
_cell_angle_beta   89.98921488
_cell_angle_gamma   90.00033919
_symmetry_Int_Tables_number   1
_chemical_formula_structural   LiBr
_chemical_formula_sum   'Li16 Br16'
_cell_volume   867.34283720
_cell_formula_units_Z   16
loop_
 _symmetry_equiv_pos_site_id
 _symmetry_equiv_pos_as_xyz
  1  'x, y, z'
loop_
 _atom_site_type_symbol
 _atom_site_label
 _atom_site_symmetry_multiplicity
 _atom_site_fract_x
 _atom_site_fract_y
 _atom_site_fract_z
 _atom_site_occupancy
  Li  Li0  1  0.14396799  0.98610961  0.78829563  1
  Li  Li1  1  0.85604813  0.01390152  0.78831171  1
  Li  Li2  1  0.10605994  0.23610573  0.03830675  1
  Li  Li3  1  0.35605084  0.01391180  0.28831121  1
  Li  Li4  1  0.60605982  0.23610367  0.53831001  1
  Li  Li5  1  0.39396184  0.26389472  0.03829859  1
  Li  Li6  1  0.64396886  0.98609742  0.28829600  1
  Li  Li7  1  0.60605659  0.73609541  0.03830678  1
  Li  Li8  1  0.39396371  0.76389468  0.53829931  1
  Li  Li9  1  0.64397291  0.48610596  0.78829899  1
  Li  Li10  1  0.35605414  0.51389721  0.78831141  1
  Li  Li11  1  0.10605850  0.73609374  0.53830614  1
  Li  Li12  1  0.89396088  0.26389834  0.53829994  1
  Li  Li13  1  0.89396236  0.76388719  0.03829768  1
  Li  Li14  1  0.14396946  0.48609597  0.28829510  1
  Li  Li15  1  0.85605221  0.51390987  0.28830915  1
  Br  Br16  1  0.63825807  -0.00573831  0.69760756  1
  Br  Br17  1  0.36171622  0.00574255  0.69761517  1
  Br  Br18  1  0.61172431  0.24427345  0.94761780  1
  Br  Br19  1  0.86171690  0.00574210  0.19761328  1
  Br  Br20  1  0.11172398  0.24426548  0.44761546  1
  Br  Br21  1  0.88826068  0.25572950  0.94761166  1
  Br  Br22  1  0.13825733  -0.00574048  0.19760517  1
  Br  Br23  1  0.11172207  0.74426408  0.94761605  1
  Br  Br24  1  0.88826081  0.75572642  0.44761360  1
  Br  Br25  1  0.13825581  0.49426378  0.69760444  1
  Br  Br26  1  0.86171491  0.50574017  0.69761475  1
  Br  Br27  1  0.61172281  0.74425218  0.44761697  1
  Br  Br28  1  0.38826194  0.25574588  0.44761245  1
  Br  Br29  1  0.38826189  0.75572343  0.94761389  1
  Br  Br30  1  0.63825716  0.49425961  0.19760618  1
  Br  Br31  1  0.36171692  0.50574731  0.19761559  1
