# generated using pymatgen
data_LiBr
_symmetry_space_group_name_H-M   'P 1'
_cell_length_a   15.56463811
_cell_length_b   15.56464736
_cell_length_c   11.16356164
_cell_angle_alpha   89.97449114
_cell_angle_beta   90.02612549
_cell_angle_gamma   120.03105790
_symmetry_Int_Tables_number   1
_chemical_formula_structural   LiBr
_chemical_formula_sum   'Li36 Br36'
_cell_volume   2341.40024058
_cell_formula_units_Z   36
loop_
 _symmetry_equiv_pos_site_id
 _symmetry_equiv_pos_as_xyz
  1  'x, y, z'
loop_
 _atom_site_type_symbol
 _atom_site_label
 _atom_site_symmetry_multiplicity
 _atom_site_fract_x
 _atom_site_fract_y
 _atom_site_fract_z
 _atom_site_occupancy
  Li  Li0  1  0.65421117  0.76124719  0.22247496  1
  Li  Li1  1  0.22614335  0.31971804  0.44316306  1
  Li  Li2  1  0.77400427  0.09360249  0.05679623  1
  Li  Li3  1  0.77386644  0.68026751  0.55682329  1
  Li  Li4  1  0.55902835  0.98585274  0.10978050  1
  Li  Li5  1  0.44111542  0.42685426  0.39024679  1
  Li  Li6  1  0.57314212  0.55888570  0.89024849  1
  Li  Li7  1  0.09360510  0.77400055  0.44319461  1
  Li  Li8  1  0.42685659  0.44111567  0.10974819  1
  Li  Li9  1  0.23899590  0.89286661  0.22275560  1
  Li  Li10  1  0.44097317  0.01416234  0.89022632  1
  Li  Li11  1  0.09402130  0.32009138  0.94348195  1
  Li  Li12  1  -0.09399984  0.67993131  0.05654654  1
  Li  Li13  1  0.65395518  0.89303825  0.72275455  1
  Li  Li14  1  0.55888759  0.57315178  0.60974999  1
  Li  Li15  1  -0.09361905  0.22599374  0.55678754  1
  Li  Li16  1  0.76102244  0.10713808  0.77724938  1
  Li  Li17  1  0.22599321  -0.09361474  0.94321394  1
  Li  Li18  1  0.01390815  0.57286824  0.11000163  1
  Li  Li19  1  0.98584445  0.55902301  0.39022130  1
  Li  Li20  1  0.10695835  0.34603822  0.22275725  1
  Li  Li21  1  0.98610771  0.42713981  0.88998546  1
  Li  Li22  1  0.01416341  0.44097253  0.60976546  1
  Li  Li23  1  0.89303921  0.65397030  0.77726473  1
  Li  Li24  1  0.34578398  0.23874836  0.77753501  1
  Li  Li25  1  0.34603995  0.10696168  0.27724736  1
  Li  Li26  1  0.67990774  -0.09402648  0.44347460  1
  Li  Li27  1  0.31971353  0.22613995  0.05684048  1
  Li  Li28  1  0.32008654  0.09401631  0.55652823  1
  Li  Li29  1  0.68027841  0.77386409  0.94317117  1
  Li  Li30  1  0.10713100  0.76101398  0.72273908  1
  Li  Li31  1  0.57287576  0.01390736  0.39000050  1
  Li  Li32  1  0.42712819  0.98609288  0.61000682  1
  Li  Li33  1  0.89285896  0.23899143  0.27724534  1
  Li  Li34  1  0.23874788  0.34578461  0.72246469  1
  Li  Li35  1  0.76123140  0.65419890  0.27751864  1
  Br  Br36  1  0.29120577  0.42504437  0.25370523  1
  Br  Br37  1  0.19946822  0.95830938  0.41243600  1
  Br  Br38  1  0.80081692  0.75900087  0.08744514  1
  Br  Br39  1  0.80052025  0.04168734  0.58755542  1
  Br  Br40  1  0.53331911  0.62512011  0.07876019  1
  Br  Br41  1  0.46695802  0.09197683  0.42110500  1
  Br  Br42  1  0.90802186  0.53304207  0.92110532  1
  Br  Br43  1  0.75899373  0.80080725  0.41256420  1
  Br  Br44  1  0.09198181  0.46695758  0.07890048  1
  Br  Br45  1  0.57477867  0.86596099  0.25388993  1
  Br  Br46  1  0.46668022  0.37488067  0.92124927  1
  Br  Br47  1  0.75889803  0.95823287  0.91265355  1
  Br  Br48  1  0.24111616  0.04177277  0.08733552  1
  Br  Br49  1  0.29132850  0.86618817  0.75409564  1
  Br  Br50  1  0.53302971  0.90800735  0.57889328  1
  Br  Br51  1  0.24099848  0.19918075  0.58744053  1
  Br  Br52  1  0.42523054  0.13404692  0.74610188  1
  Br  Br53  1  0.19917841  0.24099617  0.91255732  1
  Br  Br54  1  0.37498379  0.90831361  0.07910068  1
  Br  Br55  1  0.62511889  0.53331008  0.42124805  1
  Br  Br56  1  0.13381441  0.70866968  0.25408064  1
  Br  Br57  1  0.62501889  0.09168106  0.92089392  1
  Br  Br58  1  0.37487965  0.46668082  0.57874776  1
  Br  Br59  1  0.86619133  0.29133530  0.74590400  1
  Br  Br60  1  0.70879255  0.57495495  0.74628752  1
  Br  Br61  1  0.70866278  0.13381732  0.24589890  1
  Br  Br62  1  0.04177640  0.24112631  0.41267753  1
  Br  Br63  1  0.95831254  0.19946748  0.08756939  1
  Br  Br64  1  0.95823316  0.75888429  0.58734035  1
  Br  Br65  1  0.04168777  0.80053197  0.91243758  1
  Br  Br66  1  0.13404977  0.42523524  0.75390133  1
  Br  Br67  1  0.90829983  0.37497667  0.42089763  1
  Br  Br68  1  0.09169606  0.62502035  0.57908637  1
  Br  Br69  1  0.86595742  0.57477695  0.24611349  1
  Br  Br70  1  0.57493989  0.70879019  0.75372211  1
  Br  Br71  1  0.42505315  0.29120719  0.24628919  1
