# generated using pymatgen
data_LiBr
_symmetry_space_group_name_H-M   'P 1'
_cell_length_a   11.87238661
_cell_length_b   11.87238593
_cell_length_c   7.32349992
_cell_angle_alpha   90.00143055
_cell_angle_beta   89.99858943
_cell_angle_gamma   120.00572484
_symmetry_Int_Tables_number   1
_chemical_formula_structural   LiBr
_chemical_formula_sum   'Li18 Br18'
_cell_volume   893.92337225
_cell_formula_units_Z   18
loop_
 _symmetry_equiv_pos_site_id
 _symmetry_equiv_pos_as_xyz
  1  'x, y, z'
loop_
 _atom_site_type_symbol
 _atom_site_label
 _atom_site_symmetry_multiplicity
 _atom_site_fract_x
 _atom_site_fract_y
 _atom_site_fract_z
 _atom_site_occupancy
  Li  Li0  1  0.70822201  0.16706845  0.13640479  1
  Li  Li1  1  0.70823191  0.54114258  0.63639570  1
  Li  Li2  1  0.16626625  0.95844444  0.30307010  1
  Li  Li3  1  0.79219395  0.83376618  0.30307699  1
  Li  Li4  1  0.49956843  0.87447448  0.46974261  1
  Li  Li5  1  0.83290106  0.54114052  0.13640770  1
  Li  Li6  1  0.79218952  0.95843464  0.80306383  1
  Li  Li7  1  0.16623416  0.20780673  0.80307680  1
  Li  Li8  1  0.45885643  0.29176788  0.13639777  1
  Li  Li9  1  0.45886000  0.16709956  0.63641121  1
  Li  Li10  1  0.04155486  0.83373364  0.80306916  1
  Li  Li11  1  0.04156449  0.20780816  0.30306526  1
  Li  Li12  1  0.12552420  0.62510127  0.46972825  1
  Li  Li13  1  0.12552796  0.50043257  0.96974317  1
  Li  Li14  1  0.83293320  0.29177963  0.63640328  1
  Li  Li15  1  0.49959862  0.62511055  0.96973523  1
  Li  Li16  1  0.37488881  0.50040148  0.46973594  1
  Li  Li17  1  0.37489841  0.87447623  0.96972935  1
  Br  Br18  1  0.29134458  0.83317217  0.30221452  1
  Br  Br19  1  0.29134272  0.45817599  0.80222444  1
  Br  Br20  1  0.50016064  0.37532233  0.46888227  1
  Br  Br21  1  0.87516290  0.49983892  0.46888438  1
  Br  Br22  1  0.83349480  0.79150410  0.63555269  1
  Br  Br23  1  0.16682796  0.45816942  0.30221998  1
  Br  Br24  1  0.87515760  0.37532424  0.96889250  1
  Br  Br25  1  0.50016135  0.12483752  0.96888822  1
  Br  Br26  1  0.54182375  0.70865729  0.30222514  1
  Br  Br27  1  0.54182841  0.83317111  0.80221922  1
  Br  Br28  1  0.62467693  0.49983849  0.96888142  1
  Br  Br29  1  0.62467677  0.12484395  0.46889463  1
  Br  Br30  1  0.20849029  0.04199018  0.63555980  1
  Br  Br31  1  0.20849548  0.16650448  0.13555345  1
  Br  Br32  1  0.16682761  0.70865546  0.80221423  1
  Br  Br33  1  0.83349379  0.04198925  0.13554943  1
  Br  Br34  1  0.95801044  0.16650588  0.63555034  1
  Br  Br35  1  0.95800966  0.79151022  0.13555755  1
