# generated using pymatgen
data_NaI
_symmetry_space_group_name_H-M   'P 1'
_cell_length_a   12.71519536
_cell_length_b   17.22585874
_cell_length_c   6.35280722
_cell_angle_alpha   90.45370348
_cell_angle_beta   90.00005826
_cell_angle_gamma   89.96379533
_symmetry_Int_Tables_number   1
_chemical_formula_structural   NaI
_chemical_formula_sum   'Na16 I16'
_cell_volume   1391.41247344
_cell_formula_units_Z   16
loop_
 _symmetry_equiv_pos_site_id
 _symmetry_equiv_pos_as_xyz
  1  'x, y, z'
loop_
 _atom_site_type_symbol
 _atom_site_label
 _atom_site_symmetry_multiplicity
 _atom_site_fract_x
 _atom_site_fract_y
 _atom_site_fract_z
 _atom_site_occupancy
  Na  Na0  1  0.62502358  0.66929400  0.74671090  1
  Na  Na1  1  0.37493737  0.83059496  0.75063883  1
  Na  Na2  1  0.37514809  0.66928971  0.24669047  1
  Na  Na3  1  0.87493990  0.33059623  0.25064110  1
  Na  Na4  1  0.87515170  0.16929140  0.74668879  1
  Na  Na5  1  0.87510854  0.66942017  0.24935329  1
  Na  Na6  1  0.12502927  0.16929192  0.24670600  1
  Na  Na7  1  0.12484977  0.83070969  0.25331215  1
  Na  Na8  1  0.12488845  0.33057625  0.75065098  1
  Na  Na9  1  0.87497261  0.83070838  0.75328578  1
  Na  Na10  1  0.12506121  0.66940490  0.74936152  1
  Na  Na11  1  0.62485242  0.33071192  0.75330992  1
  Na  Na12  1  0.37510991  0.16941905  0.74935563  1
  Na  Na13  1  0.62488854  0.83058220  0.25064546  1
  Na  Na14  1  0.37497570  0.33070370  0.25327895  1
  Na  Na15  1  0.62506260  0.16940627  0.24936292  1
  I  I16  1  0.12508640  0.14607948  0.74662575  1
  I  I17  1  0.87482641  0.35385138  0.75133308  1
  I  I18  1  0.87511709  0.14610728  0.24661374  1
  I  I19  1  0.37482093  0.85384837  0.25133811  1
  I  I20  1  0.37511691  0.64610298  0.74661091  1
  I  I21  1  0.37500353  0.14615265  0.24865861  1
  I  I22  1  0.62508195  0.64608436  0.24661847  1
  I  I23  1  0.62488104  0.35389846  0.25339452  1
  I  I24  1  0.62499530  0.85384540  0.75133603  1
  I  I25  1  0.37491708  0.35391364  0.75338787  1
  I  I26  1  0.62517979  0.14615583  0.74865831  1
  I  I27  1  0.12488017  0.85389571  0.75338861  1
  I  I28  1  0.87500438  0.64615484  0.74866836  1
  I  I29  1  0.12499656  0.35384306  0.25132836  1
  I  I30  1  0.87491423  0.85391487  0.25338351  1
  I  I31  1  0.12517859  0.64615097  0.24866308  1
