# generated using pymatgen
data_NaI
_symmetry_space_group_name_H-M   'P 1'
_cell_length_a   4.61801192
_cell_length_b   4.61758411
_cell_length_c   13.04458569
_cell_angle_alpha   89.99675913
_cell_angle_beta   90.00190124
_cell_angle_gamma   89.83932122
_symmetry_Int_Tables_number   1
_chemical_formula_structural   NaI
_chemical_formula_sum   'Na4 I4'
_cell_volume   278.16241361
_cell_formula_units_Z   4
loop_
 _symmetry_equiv_pos_site_id
 _symmetry_equiv_pos_as_xyz
  1  'x, y, z'
loop_
 _atom_site_type_symbol
 _atom_site_label
 _atom_site_symmetry_multiplicity
 _atom_site_fract_x
 _atom_site_fract_y
 _atom_site_fract_z
 _atom_site_occupancy
  Na  Na0  1  0.49970605  0.00041085  0.16396461  1
  Na  Na1  1  -0.00021513  0.49993125  0.91151284  1
  Na  Na2  1  0.50010368  -0.00017464  0.66371047  1
  Na  Na3  1  0.00039052  0.49984999  0.41149152  1
  I  I4  1  0.49990424  0.00047615  0.91257407  1
  I  I5  1  0.00085324  0.50007499  0.66191639  1
  I  I6  1  0.50020238  -0.00063405  0.41259822  1
  I  I7  1  -0.00094498  0.50006545  0.16205387  1
