# generated using pymatgen
data_NaCl
_symmetry_space_group_name_H-M   'P 1'
_cell_length_a   13.22134080
_cell_length_b   3.99650859
_cell_length_c   7.74659617
_cell_angle_alpha   89.99999056
_cell_angle_beta   90.11971765
_cell_angle_gamma   89.99999993
_symmetry_Int_Tables_number   1
_chemical_formula_structural   NaCl
_chemical_formula_sum   'Na8 Cl8'
_cell_volume   409.32306717
_cell_formula_units_Z   8
loop_
 _symmetry_equiv_pos_site_id
 _symmetry_equiv_pos_as_xyz
  1  'x, y, z'
loop_
 _atom_site_type_symbol
 _atom_site_label
 _atom_site_symmetry_multiplicity
 _atom_site_fract_x
 _atom_site_fract_y
 _atom_site_fract_z
 _atom_site_occupancy
  Na  Na0  1  0.60112592  0.25040496  0.87251094  1
  Na  Na1  1  0.60112578  0.24959504  0.37251093  1
  Na  Na2  1  0.10111382  0.24959501  0.12783561  1
  Na  Na3  1  0.89888631  0.74959501  0.37216432  1
  Na  Na4  1  0.39887422  0.75040496  0.62748914  1
  Na  Na5  1  0.89888618  0.75040499  0.87216432  1
  Na  Na6  1  0.10111369  0.25040499  0.62783561  1
  Na  Na7  1  0.39887409  0.74959503  0.12748913  1
  Cl  Cl8  1  0.38730611  0.25035249  0.87630524  1
  Cl  Cl9  1  0.38730615  0.24964749  0.37630519  1
  Cl  Cl10  1  0.88730933  0.24964271  0.12313816  1
  Cl  Cl11  1  0.11269059  0.74964269  0.37686169  1
  Cl  Cl12  1  0.61269385  0.75035251  0.62369490  1
  Cl  Cl13  1  0.11269066  0.75035730  0.87686175  1
  Cl  Cl14  1  0.88730941  0.25035732  0.62313821  1
  Cl  Cl15  1  0.61269389  0.74964751  0.12369485  1
