# generated using pymatgen
data_LiI
_symmetry_space_group_name_H-M   'P 1'
_cell_length_a   10.19457013
_cell_length_b   10.19547308
_cell_length_c   5.59581497
_cell_angle_alpha   89.99998004
_cell_angle_beta   90.00001736
_cell_angle_gamma   90.00001156
_symmetry_Int_Tables_number   1
_chemical_formula_structural   LiI
_chemical_formula_sum   'Li8 I8'
_cell_volume   581.62042012
_cell_formula_units_Z   8
loop_
 _symmetry_equiv_pos_site_id
 _symmetry_equiv_pos_as_xyz
  1  'x, y, z'
loop_
 _atom_site_type_symbol
 _atom_site_label
 _atom_site_symmetry_multiplicity
 _atom_site_fract_x
 _atom_site_fract_y
 _atom_site_fract_z
 _atom_site_occupancy
  Li  Li0  1  0.86571213  0.36539925  0.17991774  1
  Li  Li1  1  0.36539246  0.86571497  0.67991380  1
  Li  Li2  1  0.13428445  0.63459633  0.17991708  1
  Li  Li3  1  0.36540181  0.13428029  0.17991569  1
  Li  Li4  1  0.63460813  0.86571724  0.17991470  1
  Li  Li5  1  0.13428798  0.36540151  0.67991615  1
  Li  Li6  1  0.63459602  0.13428069  0.67991747  1
  Li  Li7  1  0.86571488  0.63459862  0.67991779  1
  I  I8  1  0.84866580  0.34849403  0.67990525  1
  I  I9  1  0.34848168  0.84867696  0.17990517  1
  I  I10  1  0.15133467  0.65151178  0.67990248  1
  I  I11  1  0.34847223  0.15131933  0.67990434  1
  I  I12  1  0.65152382  0.84868076  0.67990408  1
  I  I13  1  0.15133880  0.34849750  0.17990432  1
  I  I14  1  0.65152394  0.15132383  0.17990341  1
  I  I15  1  0.84866119  0.65150691  0.17990350  1
