# generated using pymatgen
data_LiI
_symmetry_space_group_name_H-M   'P 1'
_cell_length_a   6.15764459
_cell_length_b   6.57873822
_cell_length_c   6.54132728
_cell_angle_alpha   89.99938737
_cell_angle_beta   89.99655233
_cell_angle_gamma   90.00376136
_symmetry_Int_Tables_number   1
_chemical_formula_structural   LiI
_chemical_formula_sum   'Li4 I4'
_cell_volume   264.98610442
_cell_formula_units_Z   4
loop_
 _symmetry_equiv_pos_site_id
 _symmetry_equiv_pos_as_xyz
  1  'x, y, z'
loop_
 _atom_site_type_symbol
 _atom_site_label
 _atom_site_symmetry_multiplicity
 _atom_site_fract_x
 _atom_site_fract_y
 _atom_site_fract_z
 _atom_site_occupancy
  Li  Li0  1  0.99823435  -0.00094169  0.50175351  1
  Li  Li1  1  0.00176385  0.49905697  0.99825358  1
  Li  Li2  1  0.50176353  0.00093423  0.00175131  1
  Li  Li3  1  0.49823439  0.50093539  0.49825592  1
  I  I4  1  0.74889745  0.74879578  0.75080310  1
  I  I5  1  0.25110522  0.24879551  0.74918976  1
  I  I6  1  0.75110482  0.25121200  0.25080277  1
  I  I7  1  0.24889638  0.75121180  0.24919005  1
