# generated using pymatgen
data_KI
_symmetry_space_group_name_H-M   'P 1'
_cell_length_a   10.16821366
_cell_length_b   7.18807664
_cell_length_c   5.07900023
_cell_angle_alpha   89.99967321
_cell_angle_beta   90.00001195
_cell_angle_gamma   90.00059668
_symmetry_Int_Tables_number   1
_chemical_formula_structural   KI
_chemical_formula_sum   'K4 I4'
_cell_volume   371.22361400
_cell_formula_units_Z   4
loop_
 _symmetry_equiv_pos_site_id
 _symmetry_equiv_pos_as_xyz
  1  'x, y, z'
loop_
 _atom_site_type_symbol
 _atom_site_label
 _atom_site_symmetry_multiplicity
 _atom_site_fract_x
 _atom_site_fract_y
 _atom_site_fract_z
 _atom_site_occupancy
  K  K0  1  0.37416934  0.74948560  0.00040367  1
  K  K1  1  0.62583168  0.24948638  0.49959481  1
  K  K2  1  0.12583069  0.25051442  0.50040576  1
  K  K3  1  0.87416848  0.75051382  -0.00040380  1
  I  I4  1  -0.12389473  0.25063020  -0.00045341  1
  I  I5  1  0.12389355  0.75063063  0.50045302  1
  I  I6  1  0.62389474  0.74936947  0.49954666  1
  I  I7  1  0.37610624  0.24936948  0.00045330  1
