# generated using pymatgen
data_LiBr
_symmetry_space_group_name_H-M   'P 1'
_cell_length_a   11.53249561
_cell_length_b   11.53248708
_cell_length_c   7.94005750
_cell_angle_alpha   90.00539108
_cell_angle_beta   89.99463215
_cell_angle_gamma   120.00665230
_symmetry_Int_Tables_number   1
_chemical_formula_structural   LiBr
_chemical_formula_sum   'Li18 Br18'
_cell_volume   914.47415409
_cell_formula_units_Z   18
loop_
 _symmetry_equiv_pos_site_id
 _symmetry_equiv_pos_as_xyz
  1  'x, y, z'
loop_
 _atom_site_type_symbol
 _atom_site_label
 _atom_site_symmetry_multiplicity
 _atom_site_fract_x
 _atom_site_fract_y
 _atom_site_fract_z
 _atom_site_occupancy
  Li  Li0  1  0.25970103  0.12896917  0.63479708  1
  Li  Li1  1  0.25969983  0.13072996  0.13479005  1
  Li  Li2  1  0.20434925  0.40694026  0.80147001  1
  Li  Li3  1  0.20258090  0.79565887  0.80147290  1
  Li  Li4  1  0.53767199  0.46406491  0.96814046  1
  Li  Li5  1  0.87102247  0.13073879  0.63479597  1
  Li  Li6  1  0.20258702  0.40693920  0.30146510  1
  Li  Li7  1  0.20434133  0.79741952  0.30147606  1
  Li  Li8  1  0.86926625  0.74029756  0.63479101  1
  Li  Li9  1  0.86926255  0.12897917  0.13479586  1
  Li  Li10  1  0.59306061  0.79564976  0.30147194  1
  Li  Li11  1  0.59305966  0.79741093  0.80146524  1
  Li  Li12  1  0.53594523  0.07362727  0.96812685  1
  Li  Li13  1  0.53593494  0.46232601  0.46813871  1
  Li  Li14  1  0.87103021  0.74030099  0.13479444  1
  Li  Li15  1  0.53768300  0.07362856  0.46813107  1
  Li  Li16  1  0.92637201  0.46231846  0.96813172  1
  Li  Li17  1  0.92637367  0.46405823  0.46812467  1
  Br  Br18  1  0.11987126  0.24147563  0.06235761  1
  Br  Br19  1  0.11987211  0.87838352  0.56239854  1
  Br  Br20  1  0.09184996  0.54679465  0.22902319  1
  Br  Br21  1  0.45495472  0.90815525  0.22902621  1
  Br  Br22  1  0.42517399  0.21171339  0.39569983  1
  Br  Br23  1  0.75851890  0.87838418  0.06235976  1
  Br  Br24  1  0.45495358  0.54679012  0.72906541  1
  Br  Br25  1  0.09184422  0.54504601  0.72902571  1
  Br  Br26  1  0.12161619  0.88012567  0.06239769  1
  Br  Br27  1  0.12161696  0.24148034  0.56235964  1
  Br  Br28  1  0.45320705  0.90815154  0.72902325  1
  Br  Br29  1  0.45320881  0.54504580  0.22906634  1
  Br  Br30  1  0.78828706  0.21345195  0.39573347  1
  Br  Br31  1  0.78828434  0.57482507  0.89569990  1
  Br  Br32  1  0.75852412  0.88012930  0.56235833  1
  Br  Br33  1  0.42518058  0.21345524  0.89569968  1
  Br  Br34  1  0.78654419  0.57481999  0.39569712  1
  Br  Br35  1  0.78654999  0.21171475  0.89573369  1
