# generated using pymatgen
data_LiBr
_symmetry_space_group_name_H-M   'P 1'
_cell_length_a   12.29398159
_cell_length_b   15.71813323
_cell_length_c   4.07528963
_cell_angle_alpha   89.99978394
_cell_angle_beta   90.00113525
_cell_angle_gamma   89.99746902
_symmetry_Int_Tables_number   1
_chemical_formula_structural   LiBr
_chemical_formula_sum   'Li16 Br16'
_cell_volume   787.50261252
_cell_formula_units_Z   16
loop_
 _symmetry_equiv_pos_site_id
 _symmetry_equiv_pos_as_xyz
  1  'x, y, z'
loop_
 _atom_site_type_symbol
 _atom_site_label
 _atom_site_symmetry_multiplicity
 _atom_site_fract_x
 _atom_site_fract_y
 _atom_site_fract_z
 _atom_site_occupancy
  Li  Li0  1  0.51014691  0.16597590  0.31343387  1
  Li  Li1  1  0.48985301  0.83402098  0.31342570  1
  Li  Li2  1  0.73977869  0.41609537  0.56223539  1
  Li  Li3  1  0.98985416  0.83402208  0.81342078  1
  Li  Li4  1  0.23977752  0.41609704  0.06224086  1
  Li  Li5  1  0.76022303  0.08390469  0.56224940  1
  Li  Li6  1  0.01014907  0.16597873  0.81343899  1
  Li  Li7  1  0.23977869  0.91609622  0.56224015  1
  Li  Li8  1  0.76022209  0.58390587  0.06224350  1
  Li  Li9  1  0.01014832  0.66597840  0.31343335  1
  Li  Li10  1  0.98985273  0.33402149  0.31342498  1
  Li  Li11  1  0.73977741  0.91609718  0.06224008  1
  Li  Li12  1  0.26022156  0.08390564  0.06224906  1
  Li  Li13  1  0.26022196  0.58390485  0.56224845  1
  Li  Li14  1  0.51014828  0.66597693  0.81343744  1
  Li  Li15  1  0.48985229  0.33402034  0.81342522  1
  Br  Br16  1  0.89065774  0.19113354  0.31900027  1
  Br  Br17  1  0.10934263  0.80886563  0.31900041  1
  Br  Br18  1  0.35934271  0.44099965  0.56799326  1
  Br  Br19  1  0.60934206  0.80886526  0.81900772  1
  Br  Br20  1  0.85934267  0.44099954  0.06798898  1
  Br  Br21  1  0.14065574  0.05900098  0.56798554  1
  Br  Br22  1  0.39065678  0.19113301  0.81899600  1
  Br  Br23  1  0.85934305  0.94099990  0.56799287  1
  Br  Br24  1  0.14065573  0.55900138  0.06798413  1
  Br  Br25  1  0.39065733  0.69113340  0.31899970  1
  Br  Br26  1  0.60934109  0.30886437  0.31900564  1
  Br  Br27  1  0.35934302  0.94100009  0.06799504  1
  Br  Br28  1  0.64065596  0.05900102  0.06798456  1
  Br  Br29  1  0.64065687  0.55900155  0.56798132  1
  Br  Br30  1  0.89065855  0.69113358  0.81899299  1
  Br  Br31  1  0.10934237  0.30886539  0.81900660  1
