# generated using pymatgen
data_LiBr
_symmetry_space_group_name_H-M   'P 1'
_cell_length_a   3.95026245
_cell_length_b   3.95026192
_cell_length_c   13.03568683
_cell_angle_alpha   89.99997081
_cell_angle_beta   90.00002246
_cell_angle_gamma   89.99273939
_symmetry_Int_Tables_number   1
_chemical_formula_structural   LiBr
_chemical_formula_sum   'Li4 Br4'
_cell_volume   203.41630357
_cell_formula_units_Z   4
loop_
 _symmetry_equiv_pos_site_id
 _symmetry_equiv_pos_as_xyz
  1  'x, y, z'
loop_
 _atom_site_type_symbol
 _atom_site_label
 _atom_site_symmetry_multiplicity
 _atom_site_fract_x
 _atom_site_fract_y
 _atom_site_fract_z
 _atom_site_occupancy
  Li  Li0  1  0.49187609  0.49142617  0.16917364  1
  Li  Li1  1  0.49142287  0.50812629  0.91917366  1
  Li  Li2  1  0.50812420  0.50857372  0.66917360  1
  Li  Li3  1  0.50857696  0.49187321  0.41917357  1
  Br  Br4  1  0.50181527  0.99207042  0.29444908  1
  Br  Br5  1  0.99206888  0.49818006  0.04444868  1
  Br  Br6  1  0.49818461  0.00792976  0.79444886  1
  Br  Br7  1  0.00793111  0.50182038  0.54444908  1
