# generated using pymatgen
data_LiBr
_symmetry_space_group_name_H-M   'P 1'
_cell_length_a   10.10884179
_cell_length_b   10.10882440
_cell_length_c   10.33796551
_cell_angle_alpha   89.97403860
_cell_angle_beta   90.02593934
_cell_angle_gamma   120.03903295
_symmetry_Int_Tables_number   1
_chemical_formula_structural   LiBr
_chemical_formula_sum   'Li18 Br18'
_cell_volume   914.52746184
_cell_formula_units_Z   18
loop_
 _symmetry_equiv_pos_site_id
 _symmetry_equiv_pos_as_xyz
  1  'x, y, z'
loop_
 _atom_site_type_symbol
 _atom_site_label
 _atom_site_symmetry_multiplicity
 _atom_site_fract_x
 _atom_site_fract_y
 _atom_site_fract_z
 _atom_site_occupancy
  Li  Li0  1  0.92916772  0.46492623  0.63204624  1
  Li  Li1  1  0.07086659  0.53565772  0.36793197  1
  Li  Li2  1  0.79788087  0.20212155  0.03441477  1
  Li  Li3  1  0.13056911  0.86792790  0.70128838  1
  Li  Li4  1  0.20211966  0.79788343  -0.03441836  1
  Li  Li5  1  0.53515030  0.46433553  0.63213398  1
  Li  Li6  1  0.86942695  0.73741211  0.29865877  1
  Li  Li7  1  0.86792717  0.13057081  0.29870894  1
  Li  Li8  1  0.53565984  0.07086725  0.63206854  1
  Li  Li9  1  0.46433259  0.53515032  0.36786380  1
  Li  Li10  1  0.26259374  0.13213202  0.29866758  1
  Li  Li11  1  0.73741087  0.86942594  0.70134205  1
  Li  Li12  1  0.20203677  0.40419981  -0.03450456  1
  Li  Li13  1  0.13213437  0.26259740  0.70133596  1
  Li  Li14  1  0.79794919  0.59577261  0.03449030  1
  Li  Li15  1  0.46492661  0.92916813  0.36795347  1
  Li  Li16  1  0.40419558  0.20203284  0.03450829  1
  Li  Li17  1  0.59577195  0.79794902  -0.03448937  1
  Br  Br18  1  0.45837356  0.91610160  0.83722108  1
  Br  Br19  1  0.54166472  0.45758698  0.16281491  1
  Br  Br20  1  0.87455978  0.75050618  0.82941588  1
  Br  Br21  1  0.20850917  0.41720802  0.49615003  1
  Br  Br22  1  0.75050747  0.87455978  0.17058414  1
  Br  Br23  1  0.08387851  0.54233925  0.83723991  1
  Br  Br24  1  0.79143246  0.20880572  0.50379051  1
  Br  Br25  1  0.41720910  0.20850856  0.50385026  1
  Br  Br26  1  0.45758680  0.54166382  0.83718539  1
  Br  Br27  1  0.54234032  0.08387782  0.16275921  1
  Br  Br28  1  0.79122364  0.58277430  0.50382151  1
  Br  Br29  1  0.20880523  0.79143118  0.49620849  1
  Br  Br30  1  0.12538421  0.87605254  0.17051018  1
  Br  Br31  1  0.58277364  0.79122275  0.49617854  1
  Br  Br32  1  0.24947849  0.12399604  0.82943646  1
  Br  Br33  1  0.91610279  0.45837306  0.16277826  1
  Br  Br34  1  0.87605209  0.12538300  0.82948988  1
  Br  Br35  1  0.12399815  0.24947878  0.17056458  1
