# generated using pymatgen
data_LiBr
_symmetry_space_group_name_H-M   'P 1'
_cell_length_a   11.13297795
_cell_length_b   11.13297643
_cell_length_c   9.35634889
_cell_angle_alpha   90.00152019
_cell_angle_beta   89.99834813
_cell_angle_gamma   120.00210745
_symmetry_Int_Tables_number   1
_chemical_formula_structural   LiBr
_chemical_formula_sum   'Li18 Br18'
_cell_volume   1004.26991999
_cell_formula_units_Z   18
loop_
 _symmetry_equiv_pos_site_id
 _symmetry_equiv_pos_as_xyz
  1  'x, y, z'
loop_
 _atom_site_type_symbol
 _atom_site_label
 _atom_site_symmetry_multiplicity
 _atom_site_fract_x
 _atom_site_fract_y
 _atom_site_fract_z
 _atom_site_occupancy
  Li  Li0  1  0.66945184  0.09245709  0.57823204  1
  Li  Li1  1  0.24362897  0.00277290  0.75512162  1
  Li  Li2  1  0.33054817  0.90754410  0.42176830  1
  Li  Li3  1  0.42300580  0.33054585  0.57822302  1
  Li  Li4  1  0.75915231  0.75638389  0.75511445  1
  Li  Li5  1  0.09246646  0.42301099  0.42177304  1
  Li  Li6  1  0.57415440  0.91021104  0.91157848  1
  Li  Li7  1  0.90753367  0.57698949  0.57822668  1
  Li  Li8  1  0.57699381  0.66945429  0.42177692  1
  Li  Li9  1  0.42584597  0.08978975  0.08842051  1
  Li  Li10  1  0.24084771  0.24361550  0.24488608  1
  Li  Li11  1  0.08977727  0.66393847  0.91157431  1
  Li  Li12  1  0.91022231  0.33606078  0.08842592  1
  Li  Li13  1  0.75637118  -0.00277312  0.24487861  1
  Li  Li14  1  0.33605567  0.42583458  0.91158229  1
  Li  Li15  1  0.66394333  0.57416519  0.08841802  1
  Li  Li16  1  -0.00277117  0.24085317  0.75511506  1
  Li  Li17  1  0.00277156  0.75914637  0.24488433  1
  Br  Br18  1  0.00282134  0.78804224  0.74398660  1
  Br  Br19  1  0.88146995  0.33615863  0.58938325  1
  Br  Br20  1  -0.00282128  0.21195786  0.25601421  1
  Br  Br21  1  0.78521849  -0.00282391  0.74397357  1
  Br  Br22  1  0.45469604  0.11853859  0.58937663  1
  Br  Br23  1  0.78805084  0.78522939  0.25602035  1
  Br  Br24  1  0.87862988  0.54812808  0.07729132  1
  Br  Br25  1  0.21194925  0.21477038  0.74397986  1
  Br  Br26  1  0.21478153  0.00282362  0.25602553  1
  Br  Br27  1  0.12136980  0.45187149  0.92270858  1
  Br  Br28  1  0.54530375  0.88146173  0.41062373  1
  Br  Br29  1  0.45186298  0.33050174  0.07728618  1
  Br  Br30  1  0.54813712  0.66949828  0.92271449  1
  Br  Br31  1  0.11853054  0.66384193  0.41061647  1
  Br  Br32  1  0.66949970  0.12136008  0.07729267  1
  Br  Br33  1  0.33050075  0.87864003  0.92270702  1
  Br  Br34  1  0.66384359  0.54531377  0.58936882  1
  Br  Br35  1  0.33615648  0.45468573  0.41063102  1
