# generated using pymatgen
data_LiBr
_symmetry_space_group_name_H-M   'P 1'
_cell_length_a   8.43467468
_cell_length_b   8.43467745
_cell_length_c   8.43472469
_cell_angle_alpha   90.00021263
_cell_angle_beta   90.00173240
_cell_angle_gamma   90.00055130
_symmetry_Int_Tables_number   1
_chemical_formula_structural   LiBr
_chemical_formula_sum   'Li12 Br12'
_cell_volume   600.07803183
_cell_formula_units_Z   12
loop_
 _symmetry_equiv_pos_site_id
 _symmetry_equiv_pos_as_xyz
  1  'x, y, z'
loop_
 _atom_site_type_symbol
 _atom_site_label
 _atom_site_symmetry_multiplicity
 _atom_site_fract_x
 _atom_site_fract_y
 _atom_site_fract_z
 _atom_site_occupancy
  Li  Li0  1  0.87521739  0.00090814  0.24984257  1
  Li  Li1  1  0.37521517  0.49909445  0.75015850  1
  Li  Li2  1  -0.00090913  0.74984487  0.62478591  1
  Li  Li3  1  0.24984699  0.87522418  0.00090235  1
  Li  Li4  1  0.75015380  0.37521574  0.49909617  1
  Li  Li5  1  0.25015221  0.12478376  0.50090319  1
  Li  Li6  1  0.74984734  0.62478192  -0.00090287  1
  Li  Li7  1  0.49909278  0.75015999  0.37521668  1
  Li  Li8  1  0.50090699  0.25015898  0.12478903  1
  Li  Li9  1  0.00090678  0.24984501  0.87521720  1
  Li  Li10  1  0.62478711  -0.00090590  0.74984592  1
  Li  Li11  1  0.12479268  0.50090884  0.25015667  1
  Br  Br12  1  0.99948898  0.75030019  0.12490804  1
  Br  Br13  1  0.49948757  0.74969538  0.87509016  1
  Br  Br14  1  0.24969650  0.62491183  0.50051541  1
  Br  Br15  1  0.12490470  0.99948601  0.75029974  1
  Br  Br16  1  0.87508830  0.49948441  0.74969661  1
  Br  Br17  1  0.37508769  0.00051156  0.25030233  1
  Br  Br18  1  0.62490944  0.50051354  0.24969877  1
  Br  Br19  1  0.74969837  0.87508748  0.49948368  1
  Br  Br20  1  0.25030311  0.37508370  0.00051260  1
  Br  Br21  1  0.75030070  0.12490978  0.99948598  1
  Br  Br22  1  0.50051209  0.24969365  0.62490956  1
  Br  Br23  1  0.00051247  0.25030249  0.37508576  1
