# generated using pymatgen
data_LiBr
_symmetry_space_group_name_H-M   'P 1'
_cell_length_a   3.88827517
_cell_length_b   3.88827575
_cell_length_c   11.03142737
_cell_angle_alpha   89.99952092
_cell_angle_beta   89.99922323
_cell_angle_gamma   90.00009295
_symmetry_Int_Tables_number   1
_chemical_formula_structural   LiBr
_chemical_formula_sum   'Li4 Br4'
_cell_volume   166.78068727
_cell_formula_units_Z   4
loop_
 _symmetry_equiv_pos_site_id
 _symmetry_equiv_pos_as_xyz
  1  'x, y, z'
loop_
 _atom_site_type_symbol
 _atom_site_label
 _atom_site_symmetry_multiplicity
 _atom_site_fract_x
 _atom_site_fract_y
 _atom_site_fract_z
 _atom_site_occupancy
  Li  Li0  1  0.00105119  0.49793032  0.60206249  1
  Li  Li1  1  0.49793032  -0.00105108  0.35206275  1
  Li  Li2  1  -0.00105089  0.50206971  0.10206071  1
  Li  Li3  1  0.50206983  0.00105121  0.85206067  1
  Br  Br4  1  0.00087872  0.49990296  0.85115785  1
  Br  Br5  1  0.49990295  -0.00087854  0.60115616  1
  Br  Br6  1  -0.00087886  0.50009675  0.35115583  1
  Br  Br7  1  0.50009674  0.00087867  0.10115714  1
