# generated using pymatgen
data_LiBr
_symmetry_space_group_name_H-M   'P 1'
_cell_length_a   6.65806910
_cell_length_b   3.87221748
_cell_length_c   6.45420895
_cell_angle_alpha   90.00105291
_cell_angle_beta   90.00529079
_cell_angle_gamma   90.00009612
_symmetry_Int_Tables_number   1
_chemical_formula_structural   LiBr
_chemical_formula_sum   'Li4 Br4'
_cell_volume   166.39913260
_cell_formula_units_Z   4
loop_
 _symmetry_equiv_pos_site_id
 _symmetry_equiv_pos_as_xyz
  1  'x, y, z'
loop_
 _atom_site_type_symbol
 _atom_site_label
 _atom_site_symmetry_multiplicity
 _atom_site_fract_x
 _atom_site_fract_y
 _atom_site_fract_z
 _atom_site_occupancy
  Li  Li0  1  0.75268298  0.25193938  0.44956935  1
  Li  Li1  1  0.25267946  0.74805687  0.44955344  1
  Li  Li2  1  0.24732533  0.74805775  0.94959838  1
  Li  Li3  1  0.74732071  0.25194304  0.94961360  1
  Br  Br4  1  0.41693784  0.24922584  0.19978209  1
  Br  Br5  1  0.91693984  0.75077540  0.19979042  1
  Br  Br6  1  0.58305612  0.75078099  0.69980282  1
  Br  Br7  1  0.08305772  0.24922074  0.69979449  1
