# generated using pymatgen
data_LiBr
_symmetry_space_group_name_H-M   'P 1'
_cell_length_a   10.60467026
_cell_length_b   10.60466377
_cell_length_c   11.50551603
_cell_angle_alpha   90.00223207
_cell_angle_beta   89.99774748
_cell_angle_gamma   120.00535448
_symmetry_Int_Tables_number   1
_chemical_formula_structural   LiBr
_chemical_formula_sum   'Li18 Br18'
_cell_volume   1120.48841480
_cell_formula_units_Z   18
loop_
 _symmetry_equiv_pos_site_id
 _symmetry_equiv_pos_as_xyz
  1  'x, y, z'
loop_
 _atom_site_type_symbol
 _atom_site_label
 _atom_site_symmetry_multiplicity
 _atom_site_fract_x
 _atom_site_fract_y
 _atom_site_fract_z
 _atom_site_occupancy
  Li  Li0  1  0.00089272  0.24775215  0.94213511  1
  Li  Li1  1  0.00089054  0.75313286  0.44214195  1
  Li  Li2  1  0.08558145  0.66577471  0.10880253  1
  Li  Li3  1  0.58017189  0.91440867  0.10880197  1
  Li  Li4  1  0.41892427  0.08649467  0.27546840  1
  Li  Li5  1  0.75225869  0.75316203  0.94213500  1
  Li  Li6  1  0.58020023  0.66577598  0.60880872  1
  Li  Li7  1  0.08559085  0.41982771  0.60880098  1
  Li  Li8  1  0.24686815  0.99910948  0.94214181  1
  Li  Li9  1  0.24683924  0.24774248  0.44213466  1
  Li  Li10  1  0.33422549  0.91441865  0.60880204  1
  Li  Li11  1  0.33422399  0.41979925  0.10880827  1
  Li  Li12  1  0.91353450  0.33244305  0.27547433  1
  Li  Li13  1  0.91350453  0.58107501  0.77546804  1
  Li  Li14  1  0.75224800  0.99910754  0.44213564  1
  Li  Li15  1  0.41891512  0.33244085  0.77546905  1
  Li  Li16  1  0.66755923  0.58108509  0.27546890  1
  Li  Li17  1  0.66755658  0.08646507  0.77547557  1
  Br  Br18  1  0.23646231  0.00063526  0.44253417  1
  Br  Br19  1  0.23642941  0.23579589  0.94252324  1
  Br  Br20  1  0.33269761  0.43020375  0.60920048  1
  Br  Br21  1  0.09750453  0.66729478  0.60917274  1
  Br  Br22  1  0.66603806  0.56916202  0.77584015  1
  Br  Br23  1  -0.00062794  0.23582832  0.44250552  1
  Br  Br24  1  0.09753722  0.43023749  0.10918993  1
  Br  Br25  1  0.33270553  0.90249498  0.10917340  1
  Br  Br26  1  0.76420387  0.76357009  0.44252358  1
  Br  Br27  1  0.76417150  0.00062834  0.94250727  1
  Br  Br28  1  0.56979644  0.66730119  0.10920050  1
  Br  Br29  1  0.56976218  0.90246217  0.60918996  1
  Br  Br30  1  0.43087094  0.09690406  0.77585650  1
  Br  Br31  1  0.43083871  0.33396083  0.27583927  1
  Br  Br32  1  -0.00063360  0.76353782  0.94253369  1
  Br  Br33  1  0.66603237  0.09687037  0.27586751  1
  Br  Br34  1  0.90312891  0.33396793  0.77586696  1
  Br  Br35  1  0.90309647  0.56912945  0.27585685  1
