# generated using pymatgen
data_KI
_symmetry_space_group_name_H-M   'P 1'
_cell_length_a   8.60563824
_cell_length_b   4.99153419
_cell_length_c   8.66927141
_cell_angle_alpha   90.00000008
_cell_angle_beta   90.00001018
_cell_angle_gamma   90.00000826
_symmetry_Int_Tables_number   1
_chemical_formula_structural   KI
_chemical_formula_sum   'K4 I4'
_cell_volume   372.39147968
_cell_formula_units_Z   4
loop_
 _symmetry_equiv_pos_site_id
 _symmetry_equiv_pos_as_xyz
  1  'x, y, z'
loop_
 _atom_site_type_symbol
 _atom_site_label
 _atom_site_symmetry_multiplicity
 _atom_site_fract_x
 _atom_site_fract_y
 _atom_site_fract_z
 _atom_site_occupancy
  K  K0  1  0.25025621  0.25467627  0.26643501  1
  K  K1  1  0.75025622  0.74532377  0.26643500  1
  K  K2  1  0.74974378  0.74532370  0.76643504  1
  K  K3  1  0.24974377  0.25467627  0.76643502  1
  I  I4  1  0.41588197  0.75408370  0.01636726  1
  I  I5  1  0.91588199  0.24591624  0.01636726  1
  I  I6  1  0.58411803  0.24591632  0.51636726  1
  I  I7  1  0.08411802  0.75408374  0.51636727  1
