# generated using pymatgen
data_LiI
_symmetry_space_group_name_H-M   'P 1'
_cell_length_a   7.63419022
_cell_length_b   9.76286875
_cell_length_c   7.17266061
_cell_angle_alpha   89.99356019
_cell_angle_beta   89.99960058
_cell_angle_gamma   89.99753121
_symmetry_Int_Tables_number   1
_chemical_formula_structural   LiI
_chemical_formula_sum   'Li8 I8'
_cell_volume   534.58984734
_cell_formula_units_Z   8
loop_
 _symmetry_equiv_pos_site_id
 _symmetry_equiv_pos_as_xyz
  1  'x, y, z'
loop_
 _atom_site_type_symbol
 _atom_site_label
 _atom_site_symmetry_multiplicity
 _atom_site_fract_x
 _atom_site_fract_y
 _atom_site_fract_z
 _atom_site_occupancy
  Li  Li0  1  0.14611040  0.86893269  0.09244656  1
  Li  Li1  1  0.14609112  0.63105388  0.59245816  1
  Li  Li2  1  0.64611823  0.63105828  0.90754618  1
  Li  Li3  1  0.35392546  0.13104693  0.59244548  1
  Li  Li4  1  0.85390686  0.36894649  0.40754285  1
  Li  Li5  1  0.35387938  0.36894180  0.09245350  1
  Li  Li6  1  0.64607614  0.86895565  0.40755570  1
  Li  Li7  1  0.85389226  0.13106476  0.90755332  1
  I  I8  1  0.78105054  0.62755504  0.55475283  1
  I  I9  1  0.78101705  0.87243102  0.05473293  1
  I  I10  1  0.28104691  0.87243408  0.44527144  1
  I  I11  1  0.71897692  0.37243162  0.05472796  1
  I  I12  1  0.21898232  0.12756847  0.94526727  1
  I  I13  1  0.71895371  0.12756667  0.55472777  1
  I  I14  1  0.28102544  0.62756795  0.94527062  1
  I  I15  1  0.21894726  0.37244468  0.44524743  1
