# generated using pymatgen
data_LiBr
_symmetry_space_group_name_H-M   'P 1'
_cell_length_a   8.20957531
_cell_length_b   8.31191874
_cell_length_c   3.70758475
_cell_angle_alpha   90.00000169
_cell_angle_beta   116.86649753
_cell_angle_gamma   90.00001325
_symmetry_Int_Tables_number   1
_chemical_formula_structural   LiBr
_chemical_formula_sum   'Li4 Br4'
_cell_volume   225.68779425
_cell_formula_units_Z   4
loop_
 _symmetry_equiv_pos_site_id
 _symmetry_equiv_pos_as_xyz
  1  'x, y, z'
loop_
 _atom_site_type_symbol
 _atom_site_label
 _atom_site_symmetry_multiplicity
 _atom_site_fract_x
 _atom_site_fract_y
 _atom_site_fract_z
 _atom_site_occupancy
  Li  Li0  1  0.63542708  0.75055854  0.56903225  1
  Li  Li1  1  0.13542562  0.25055876  0.56902963  1
  Li  Li2  1  0.63542557  0.24944124  0.06902676  1
  Li  Li3  1  0.13542699  0.74944148  0.06902936  1
  Br  Br4  1  0.38556279  0.25062411  0.31993990  1
  Br  Br5  1  0.88556419  0.75062424  0.31994187  1
  Br  Br6  1  0.38556427  0.74937576  0.81994264  1
  Br  Br7  1  0.88556284  0.24937588  0.81994063  1
