# generated using pymatgen
data_LiI
_symmetry_space_group_name_H-M   'P 1'
_cell_length_a   7.45712309
_cell_length_b   9.22781852
_cell_length_c   8.10092589
_cell_angle_alpha   90.00002377
_cell_angle_beta   90.00002270
_cell_angle_gamma   89.99995901
_symmetry_Int_Tables_number   1
_chemical_formula_structural   LiI
_chemical_formula_sum   'Li8 I8'
_cell_volume   557.44883936
_cell_formula_units_Z   8
loop_
 _symmetry_equiv_pos_site_id
 _symmetry_equiv_pos_as_xyz
  1  'x, y, z'
loop_
 _atom_site_type_symbol
 _atom_site_label
 _atom_site_symmetry_multiplicity
 _atom_site_fract_x
 _atom_site_fract_y
 _atom_site_fract_z
 _atom_site_occupancy
  Li  Li0  1  0.14818459  0.13504116  0.42165867  1
  Li  Li1  1  0.14818636  0.86496021  0.92165922  1
  Li  Li2  1  0.64818701  0.36495928  0.57834092  1
  Li  Li3  1  0.35181298  0.36496047  0.92165896  1
  Li  Li4  1  0.85181432  0.13504079  0.07834157  1
  Li  Li5  1  0.35181461  0.63504045  0.42165878  1
  Li  Li6  1  0.64818686  0.63504113  0.07834094  1
  Li  Li7  1  0.85181305  0.86495921  0.57834024  1
  I  I8  1  0.27090528  0.62251423  0.08683749  1
  I  I9  1  0.27090339  0.37748644  0.58683761  1
  I  I10  1  0.77090447  0.87748596  0.91316197  1
  I  I11  1  0.22909570  0.87748598  0.58683764  1
  I  I12  1  0.72909589  0.62251215  0.41316229  1
  I  I13  1  0.22909569  0.12251400  0.08683767  1
  I  I14  1  0.77090346  0.12251249  0.41316355  1
  I  I15  1  0.72909633  0.37748603  0.91316248  1
