# generated using pymatgen
data_LiBr
_symmetry_space_group_name_H-M   'P 1'
_cell_length_a   6.61916955
_cell_length_b   8.19870377
_cell_length_c   4.32228264
_cell_angle_alpha   89.99996304
_cell_angle_beta   90.00008469
_cell_angle_gamma   89.99998563
_symmetry_Int_Tables_number   1
_chemical_formula_structural   LiBr
_chemical_formula_sum   'Li4 Br4'
_cell_volume   234.56427272
_cell_formula_units_Z   4
loop_
 _symmetry_equiv_pos_site_id
 _symmetry_equiv_pos_as_xyz
  1  'x, y, z'
loop_
 _atom_site_type_symbol
 _atom_site_label
 _atom_site_symmetry_multiplicity
 _atom_site_fract_x
 _atom_site_fract_y
 _atom_site_fract_z
 _atom_site_occupancy
  Li  Li0  1  0.67523707  0.35281553  0.24777592  1
  Li  Li1  1  0.32476253  0.85281526  0.25222448  1
  Li  Li2  1  0.82476313  0.64718473  0.74779154  1
  Li  Li3  1  0.17523688  0.14718442  0.75220836  1
  Br  Br4  1  0.87575587  0.33411892  0.74822782  1
  Br  Br5  1  0.12424448  0.83411849  0.75177259  1
  Br  Br6  1  0.62424426  0.66588150  0.24823792  1
  Br  Br7  1  0.37575578  0.16588115  0.25176137  1
