# generated using pymatgen
data_LiBr
_symmetry_space_group_name_H-M   'P 1'
_cell_length_a   11.54102607
_cell_length_b   11.54102948
_cell_length_c   7.91415828
_cell_angle_alpha   90.00234374
_cell_angle_beta   89.99756740
_cell_angle_gamma   120.00316853
_symmetry_Int_Tables_number   1
_chemical_formula_structural   LiBr
_chemical_formula_sum   'Li18 Br18'
_cell_volume   912.87322303
_cell_formula_units_Z   18
loop_
 _symmetry_equiv_pos_site_id
 _symmetry_equiv_pos_as_xyz
  1  'x, y, z'
loop_
 _atom_site_type_symbol
 _atom_site_label
 _atom_site_symmetry_multiplicity
 _atom_site_fract_x
 _atom_site_fract_y
 _atom_site_fract_z
 _atom_site_occupancy
  Li  Li0  1  0.46488692  0.53768157  0.11244161  1
  Li  Li1  1  0.46489072  0.92720373  0.61244635  1
  Li  Li2  1  0.79575485  0.20185915  0.27910444  1
  Li  Li3  1  0.40610795  0.20424321  0.27910242  1
  Li  Li4  1  0.12904346  0.26055535  0.44577713  1
  Li  Li5  1  0.46231594  0.92720119  0.11244447  1
  Li  Li6  1  0.40610156  0.20185638  0.77910314  1
  Li  Li7  1  0.79575815  0.59389087  0.77910339  1
  Li  Li8  1  0.07279626  0.53510992  0.11244809  1
  Li  Li9  1  0.07280078  0.53768358  0.61244466  1
  Li  Li10  1  0.79814103  0.20424464  0.77910457  1
  Li  Li11  1  0.79814360  0.59389978  0.27910464  1
  Li  Li12  1  0.73943687  0.86848179  0.44577725  1
  Li  Li13  1  0.73944244  0.87095681  0.94577540  1
  Li  Li14  1  0.46231889  0.53511270  0.61244194  1
  Li  Li15  1  0.12904797  0.86848130  0.94577465  1
  Li  Li16  1  0.13151964  0.87095163  0.44577505  1
  Li  Li17  1  0.13151822  0.26056243  0.94577885  1
  Br  Br18  1  0.21391388  0.78808832  0.68549643  1
  Br  Br19  1  0.21391173  0.42582829  0.18551580  1
  Br  Br20  1  0.54530222  0.45279769  0.85215705  1
  Br  Br21  1  0.90749615  0.45469871  0.85217538  1
  Br  Br22  1  0.87860077  0.75919340  0.01882207  1
  Br  Br23  1  0.21191379  0.42582503  0.68551150  1
  Br  Br24  1  0.90749060  0.45280029  0.35217907  1
  Br  Br25  1  0.54530147  0.09250562  0.35217416  1
  Br  Br26  1  0.57417087  0.78608700  0.68551405  1
  Br  Br27  1  0.57417310  0.78808654  0.18551053  1
  Br  Br28  1  0.54720234  0.45469929  0.35215653  1
  Br  Br29  1  0.54720044  0.09250937  0.85217704  1
  Br  Br30  1  0.24080449  0.11941071  0.01882656  1
  Br  Br31  1  0.24080685  0.12139828  0.51882182  1
  Br  Br32  1  0.21191072  0.78608635  0.18549628  1
  Br  Br33  1  0.87859694  0.11941066  0.51881063  1
  Br  Br34  1  0.88058865  0.12140219  0.01881105  1
  Br  Br35  1  0.88058975  0.75919622  0.51882773  1
