# generated using pymatgen
data_LiBr
_symmetry_space_group_name_H-M   'P 1'
_cell_length_a   3.89479238
_cell_length_b   3.89476039
_cell_length_c   11.01361110
_cell_angle_alpha   90.00040769
_cell_angle_beta   89.99983619
_cell_angle_gamma   90.00042085
_symmetry_Int_Tables_number   1
_chemical_formula_structural   LiBr
_chemical_formula_sum   'Li4 Br4'
_cell_volume   167.06858433
_cell_formula_units_Z   4
loop_
 _symmetry_equiv_pos_site_id
 _symmetry_equiv_pos_as_xyz
  1  'x, y, z'
loop_
 _atom_site_type_symbol
 _atom_site_label
 _atom_site_symmetry_multiplicity
 _atom_site_fract_x
 _atom_site_fract_y
 _atom_site_fract_z
 _atom_site_occupancy
  Li  Li0  1  0.49624348  0.00086425  0.40212429  1
  Li  Li1  1  0.00084233  0.50374619  0.15212310  1
  Li  Li2  1  0.50375614  -0.00086428  0.90212411  1
  Li  Li3  1  -0.00084209  0.49625348  0.65212455  1
  Br  Br4  1  0.49913512  -0.00013938  0.65145432  1
  Br  Br5  1  -0.00013418  0.50087971  0.40145403  1
  Br  Br6  1  0.50086382  0.00013891  0.15145386  1
  Br  Br7  1  0.00013538  0.49912112  0.90145406  1
