# generated using pymatgen
data_LiBr
_symmetry_space_group_name_H-M   'P 1'
_cell_length_a   5.47560988
_cell_length_b   5.52624489
_cell_length_c   5.49578829
_cell_angle_alpha   89.99999154
_cell_angle_beta   89.99999875
_cell_angle_gamma   89.99999790
_symmetry_Int_Tables_number   1
_chemical_formula_structural   LiBr
_chemical_formula_sum   'Li4 Br4'
_cell_volume   166.30014143
_cell_formula_units_Z   4
loop_
 _symmetry_equiv_pos_site_id
 _symmetry_equiv_pos_as_xyz
  1  'x, y, z'
loop_
 _atom_site_type_symbol
 _atom_site_label
 _atom_site_symmetry_multiplicity
 _atom_site_fract_x
 _atom_site_fract_y
 _atom_site_fract_z
 _atom_site_occupancy
  Li  Li0  1  -0.00041491  0.75015376  0.36791682  1
  Li  Li1  1  0.49958434  0.24984736  0.36791595  1
  Li  Li2  1  0.00041489  0.24984394  0.86792110  1
  Li  Li3  1  0.50041505  0.75015503  0.86792498  1
  Br  Br4  1  0.00043458  0.74975004  0.86603145  1
  Br  Br5  1  0.50043448  0.25024971  0.86603126  1
  Br  Br6  1  -0.00043427  0.25024962  0.36603214  1
  Br  Br7  1  0.49956583  0.74975054  0.36603305  1
