# generated using pymatgen
data_LiBr
_symmetry_space_group_name_H-M   'P 1'
_cell_length_a   7.26188232
_cell_length_b   4.18730365
_cell_length_c   6.73405719
_cell_angle_alpha   90.00002444
_cell_angle_beta   89.99958162
_cell_angle_gamma   89.99997470
_symmetry_Int_Tables_number   1
_chemical_formula_structural   LiBr
_chemical_formula_sum   'Li4 Br4'
_cell_volume   204.76723308
_cell_formula_units_Z   4
loop_
 _symmetry_equiv_pos_site_id
 _symmetry_equiv_pos_as_xyz
  1  'x, y, z'
loop_
 _atom_site_type_symbol
 _atom_site_label
 _atom_site_symmetry_multiplicity
 _atom_site_fract_x
 _atom_site_fract_y
 _atom_site_fract_z
 _atom_site_occupancy
  Li  Li0  1  0.91562140  0.25056674  0.60822245  1
  Li  Li1  1  0.41562132  0.74943315  0.60822376  1
  Li  Li2  1  0.08437936  0.74943556  0.10822528  1
  Li  Li3  1  0.58437981  0.25056446  0.10822489  1
  Br  Br4  1  0.41787890  0.75034659  0.98790349  1
  Br  Br5  1  0.91787912  0.24965376  0.98790287  1
  Br  Br6  1  0.58212028  0.24965076  0.48790471  1
  Br  Br7  1  0.08211980  0.75034898  0.48790418  1
