# generated using pymatgen
data_LiI
_symmetry_space_group_name_H-M   'P 1'
_cell_length_a   6.98639366
_cell_length_b   7.33841503
_cell_length_c   4.23827707
_cell_angle_alpha   90.00014498
_cell_angle_beta   89.99987943
_cell_angle_gamma   90.00010872
_symmetry_Int_Tables_number   1
_chemical_formula_structural   LiI
_chemical_formula_sum   'Li4 I4'
_cell_volume   217.29246521
_cell_formula_units_Z   4
loop_
 _symmetry_equiv_pos_site_id
 _symmetry_equiv_pos_as_xyz
  1  'x, y, z'
loop_
 _atom_site_type_symbol
 _atom_site_label
 _atom_site_symmetry_multiplicity
 _atom_site_fract_x
 _atom_site_fract_y
 _atom_site_fract_z
 _atom_site_occupancy
  Li  Li0  1  0.25219937  0.74846617  -0.00365399  1
  Li  Li1  1  0.74779852  0.24846359  0.50365943  1
  Li  Li2  1  0.24779879  0.25153687  0.49633965  1
  Li  Li3  1  0.75219915  0.75153413  0.00365539  1
  I  I4  1  -0.00041263  0.41650969  -0.00066792  1
  I  I5  1  0.00041529  0.91650837  0.50066775  1
  I  I6  1  0.50041458  0.58349080  0.49933280  1
  I  I7  1  0.49958692  0.08349038  0.00066688  1
