# generated using pymatgen
data_LiBr
_symmetry_space_group_name_H-M   'P 1'
_cell_length_a   7.77010527
_cell_length_b   3.89512324
_cell_length_c   5.51547737
_cell_angle_alpha   89.99995445
_cell_angle_beta   89.99946944
_cell_angle_gamma   89.99872879
_symmetry_Int_Tables_number   1
_chemical_formula_structural   LiBr
_chemical_formula_sum   'Li4 Br4'
_cell_volume   166.92877751
_cell_formula_units_Z   4
loop_
 _symmetry_equiv_pos_site_id
 _symmetry_equiv_pos_as_xyz
  1  'x, y, z'
loop_
 _atom_site_type_symbol
 _atom_site_label
 _atom_site_symmetry_multiplicity
 _atom_site_fract_x
 _atom_site_fract_y
 _atom_site_fract_z
 _atom_site_occupancy
  Li  Li0  1  0.12482570  0.74970741  0.08373616  1
  Li  Li1  1  0.62482505  0.75028279  0.08373642  1
  Li  Li2  1  0.87517332  0.25029291  0.58374285  1
  Li  Li3  1  0.37517576  0.24971671  0.58374078  1
  Br  Br4  1  0.62532293  0.74957592  0.58165060  1
  Br  Br5  1  0.12532030  0.75042572  0.58165130  1
  Br  Br6  1  0.37467563  0.25042423  0.08164918  1
  Br  Br7  1  0.87468131  0.24957431  0.08164985  1
