# generated using pymatgen
data_LiI
_symmetry_space_group_name_H-M   'P 1'
_cell_length_a   4.46936591
_cell_length_b   14.49050324
_cell_length_c   5.06025102
_cell_angle_alpha   89.96080803
_cell_angle_beta   54.76851366
_cell_angle_gamma   90.25309819
_symmetry_Int_Tables_number   1
_chemical_formula_structural   LiI
_chemical_formula_sum   'Li4 I4'
_cell_volume   267.68523792
_cell_formula_units_Z   4
loop_
 _symmetry_equiv_pos_site_id
 _symmetry_equiv_pos_as_xyz
  1  'x, y, z'
loop_
 _atom_site_type_symbol
 _atom_site_label
 _atom_site_symmetry_multiplicity
 _atom_site_fract_x
 _atom_site_fract_y
 _atom_site_fract_z
 _atom_site_occupancy
  Li  Li0  1  0.32746069  0.82394065  0.81871466  1
  Li  Li1  1  0.67178092  0.32430516  0.68142319  1
  Li  Li2  1  0.67229379  0.17603010  0.18145908  1
  Li  Li3  1  0.32847151  0.67569043  0.31849080  1
  I  I4  1  0.58192013  0.86618596  0.18937803  1
  I  I5  1  0.41964933  0.36629936  0.30927163  1
  I  I6  1  0.41785290  0.13383068  0.81070089  1
  I  I7  1  0.58057072  0.63371767  0.69056171  1
