# generated using pymatgen
data_LiBr
_symmetry_space_group_name_H-M   'P 1'
_cell_length_a   8.12413005
_cell_length_b   8.12413112
_cell_length_c   11.63330680
_cell_angle_alpha   89.99984520
_cell_angle_beta   90.00008675
_cell_angle_gamma   89.99975620
_symmetry_Int_Tables_number   1
_chemical_formula_structural   LiBr
_chemical_formula_sum   'Li16 Br16'
_cell_volume   767.81567311
_cell_formula_units_Z   16
loop_
 _symmetry_equiv_pos_site_id
 _symmetry_equiv_pos_as_xyz
  1  'x, y, z'
loop_
 _atom_site_type_symbol
 _atom_site_label
 _atom_site_symmetry_multiplicity
 _atom_site_fract_x
 _atom_site_fract_y
 _atom_site_fract_z
 _atom_site_occupancy
  Li  Li0  1  0.68505841  0.68553455  0.85796039  1
  Li  Li1  1  0.18552927  0.68506090  0.10796133  1
  Li  Li2  1  0.31494140  0.68553068  0.35796078  1
  Li  Li3  1  0.31494846  0.31446594  0.85795939  1
  Li  Li4  1  0.81446982  0.31494188  0.10796005  1
  Li  Li5  1  0.31446852  0.18506061  0.10796069  1
  Li  Li6  1  0.68552775  0.81494561  0.10796005  1
  Li  Li7  1  0.81447215  0.68505615  0.60796106  1
  Li  Li8  1  0.18553231  0.31494418  0.60795896  1
  Li  Li9  1  0.81494101  0.81446171  0.35795836  1
  Li  Li10  1  0.31447192  0.81494193  0.60796096  1
  Li  Li11  1  0.18505464  0.18552959  0.35795970  1
  Li  Li12  1  0.68553089  0.18506288  0.60796079  1
  Li  Li13  1  0.81494670  0.18552925  0.85795958  1
  Li  Li14  1  0.18505659  0.81446786  0.85795943  1
  Li  Li15  1  0.68505315  0.31446826  0.35795920  1
  Br  Br16  1  0.05731594  0.74964643  0.48296263  1
  Br  Br17  1  0.24963944  0.05731446  0.73296168  1
  Br  Br18  1  -0.05731604  0.74964684  0.98296245  1
  Br  Br19  1  -0.05731667  0.25036495  0.48296285  1
  Br  Br20  1  0.75035601  -0.05731372  0.73295920  1
  Br  Br21  1  0.25035797  0.55731476  0.73296269  1
  Br  Br22  1  0.74963994  0.44268562  0.73296418  1
  Br  Br23  1  0.75036247  0.05731343  0.23296405  1
  Br  Br24  1  0.24964705  -0.05731414  0.23296183  1
  Br  Br25  1  0.44268347  0.75035475  0.98296156  1
  Br  Br26  1  0.25035477  0.44268512  0.23296333  1
  Br  Br27  1  0.55731759  0.24963513  0.98296328  1
  Br  Br28  1  0.74963983  0.55731365  0.23296041  1
  Br  Br29  1  0.44268325  0.24963881  0.48296179  1
  Br  Br30  1  0.55731584  0.75035075  0.48296227  1
  Br  Br31  1  0.05731620  0.25036119  0.98296224  1
