# generated using pymatgen
data_NaI
_symmetry_space_group_name_H-M   'P 1'
_cell_length_a   7.85689898
_cell_length_b   4.60730743
_cell_length_c   7.73008669
_cell_angle_alpha   89.99949813
_cell_angle_beta   89.99944790
_cell_angle_gamma   90.00049279
_symmetry_Int_Tables_number   1
_chemical_formula_structural   NaI
_chemical_formula_sum   'Na4 I4'
_cell_volume   279.82256028
_cell_formula_units_Z   4
loop_
 _symmetry_equiv_pos_site_id
 _symmetry_equiv_pos_as_xyz
  1  'x, y, z'
loop_
 _atom_site_type_symbol
 _atom_site_label
 _atom_site_symmetry_multiplicity
 _atom_site_fract_x
 _atom_site_fract_y
 _atom_site_fract_z
 _atom_site_occupancy
  Na  Na0  1  0.75154724  0.24908743  0.76177571  1
  Na  Na1  1  0.25154834  0.75089219  0.76178703  1
  Na  Na2  1  0.24844940  0.75091280  0.26178486  1
  Na  Na3  1  0.74845552  0.24910792  0.26177360  1
  I  I4  1  0.41636006  0.25158034  0.01215546  1
  I  I5  1  0.91636504  0.74841365  0.01214856  1
  I  I6  1  0.58363846  0.74842012  0.51214653  1
  I  I7  1  0.08363596  0.25158555  0.51215725  1
