# generated using pymatgen
data_KI
_symmetry_space_group_name_H-M   'P 1'
_cell_length_a   16.67744669
_cell_length_b   16.67740050
_cell_length_c   7.10311852
_cell_angle_alpha   89.99897252
_cell_angle_beta   90.00083917
_cell_angle_gamma   120.00104758
_symmetry_Int_Tables_number   1
_chemical_formula_structural   KI
_chemical_formula_sum   'K12 I12'
_cell_volume   1710.93309657
_cell_formula_units_Z   12
loop_
 _symmetry_equiv_pos_site_id
 _symmetry_equiv_pos_as_xyz
  1  'x, y, z'
loop_
 _atom_site_type_symbol
 _atom_site_label
 _atom_site_symmetry_multiplicity
 _atom_site_fract_x
 _atom_site_fract_y
 _atom_site_fract_z
 _atom_site_occupancy
  K  K0  1  0.12156507  0.45712096  0.00260637  1
  K  K1  1  0.54291246  0.66446237  0.00261182  1
  K  K2  1  0.66447694  0.12153992  -0.00260845  1
  K  K3  1  0.87843495  0.54287889  -0.00260630  1
  K  K4  1  0.33553758  0.45708782  0.50261397  1
  K  K5  1  0.54287839  0.87843471  0.50260899  1
  K  K6  1  0.12153938  0.66447682  0.50261036  1
  K  K7  1  0.45708772  0.33553783  -0.00261177  1
  K  K8  1  0.87846060  0.33552296  0.49738957  1
  K  K9  1  0.66446266  0.54291239  0.49738595  1
  K  K10  1  0.45712139  0.12156530  0.49739094  1
  K  K11  1  0.33552287  0.87846006  0.00260852  1
  I  I12  1  0.87701174  0.32978649  -0.00307172  1
  I  I13  1  0.67021208  0.54720194  -0.00307344  1
  I  I14  1  0.54717927  0.87697995  0.00307327  1
  I  I15  1  0.12298827  0.67021334  0.00307169  1
  I  I16  1  0.45279821  0.32978834  0.49692930  1
  I  I17  1  0.67021333  0.12298884  0.49693045  1
  I  I18  1  0.87698028  0.54717981  0.49693011  1
  I  I19  1  0.32978810  0.45279825  0.00307344  1
  I  I20  1  0.12301971  0.45281997  0.50306991  1
  I  I21  1  0.54720201  0.67021186  0.50307073  1
  I  I22  1  0.32978645  0.87701116  0.50306958  1
  I  I23  1  0.45282053  0.12302004  -0.00307328  1
