# generated using pymatgen
data_NaI
_symmetry_space_group_name_H-M   'P 1'
_cell_length_a   6.52636218
_cell_length_b   9.65431407
_cell_length_c   5.35198751
_cell_angle_alpha   90.00487283
_cell_angle_beta   89.97778685
_cell_angle_gamma   90.00004006
_symmetry_Int_Tables_number   1
_chemical_formula_structural   NaI
_chemical_formula_sum   'Na4 I4'
_cell_volume   337.21559507
_cell_formula_units_Z   4
loop_
 _symmetry_equiv_pos_site_id
 _symmetry_equiv_pos_as_xyz
  1  'x, y, z'
loop_
 _atom_site_type_symbol
 _atom_site_label
 _atom_site_symmetry_multiplicity
 _atom_site_fract_x
 _atom_site_fract_y
 _atom_site_fract_z
 _atom_site_occupancy
  Na  Na0  1  0.74995167  0.41572125  0.55724624  1
  Na  Na1  1  0.24996247  0.08427829  0.55723260  1
  Na  Na2  1  0.25004684  0.58430189  0.05768961  1
  Na  Na3  1  0.75006136  -0.08430235  0.05770178  1
  I  I4  1  0.24989128  0.41173809  0.55846554  1
  I  I5  1  0.74990015  0.08826260  0.55853561  1
  I  I6  1  0.75008827  0.58826118  0.05801760  1
  I  I7  1  0.25009796  0.91173904  0.05794846  1
