# generated using pymatgen
data_LiBr
_symmetry_space_group_name_H-M   'P 1'
_cell_length_a   5.90712759
_cell_length_b   5.12616091
_cell_length_c   8.86256752
_cell_angle_alpha   90.00058300
_cell_angle_beta   131.84658825
_cell_angle_gamma   89.99995067
_symmetry_Int_Tables_number   1
_chemical_formula_structural   LiBr
_chemical_formula_sum   'Li4 Br4'
_cell_volume   199.91519874
_cell_formula_units_Z   4
loop_
 _symmetry_equiv_pos_site_id
 _symmetry_equiv_pos_as_xyz
  1  'x, y, z'
loop_
 _atom_site_type_symbol
 _atom_site_label
 _atom_site_symmetry_multiplicity
 _atom_site_fract_x
 _atom_site_fract_y
 _atom_site_fract_z
 _atom_site_occupancy
  Li  Li0  1  0.00271697  0.74958892  0.91018000  1
  Li  Li1  1  0.50271725  0.24960294  0.91018203  1
  Li  Li2  1  0.00270986  0.25039912  0.41018222  1
  Li  Li3  1  0.50270675  0.75041439  0.41018011  1
  Br  Br4  1  0.00123890  0.99900658  0.15998843  1
  Br  Br5  1  0.50124826  0.49900676  0.15999792  1
  Br  Br6  1  0.00125110  0.00099058  0.65999716  1
  Br  Br7  1  0.50124343  0.50099071  0.65998923  1
