# generated using pymatgen
data_LiBr
_symmetry_space_group_name_H-M   'P 1'
_cell_length_a   10.02088130
_cell_length_b   10.02088035
_cell_length_c   13.03343628
_cell_angle_alpha   89.99891014
_cell_angle_beta   90.00106606
_cell_angle_gamma   119.99404188
_symmetry_Int_Tables_number   1
_chemical_formula_structural   LiBr
_chemical_formula_sum   'Li18 Br18'
_cell_volume   1133.51541444
_cell_formula_units_Z   18
loop_
 _symmetry_equiv_pos_site_id
 _symmetry_equiv_pos_as_xyz
  1  'x, y, z'
loop_
 _atom_site_type_symbol
 _atom_site_label
 _atom_site_symmetry_multiplicity
 _atom_site_fract_x
 _atom_site_fract_y
 _atom_site_fract_z
 _atom_site_occupancy
  Li  Li0  1  0.41340122  0.08221383  0.90705148  1
  Li  Li1  1  0.41327511  0.33118377  0.40704228  1
  Li  Li2  1  0.25101367  0.25290427  0.07373920  1
  Li  Li3  1  0.00185624  0.74892196  0.07373645  1
  Li  Li4  1  0.58440259  0.66473409  0.24043983  1
  Li  Li5  1  0.91791788  0.33121475  0.90705021  1
  Li  Li6  1  0.00192538  0.25292787  0.57374245  1
  Li  Li7  1  0.25107816  -0.00185718  0.57373586  1
  Li  Li8  1  0.66881632  0.58672534  0.90704163  1
  Li  Li9  1  0.66878487  0.08208239  0.40705033  1
  Li  Li10  1  0.74709578  0.74898708  0.57373900  1
  Li  Li11  1  0.74707288  -0.00192468  0.07374287  1
  Li  Li12  1  0.33531941  0.91969337  0.24042187  1
  Li  Li13  1  0.33526615  0.41559730  0.74044065  1
  Li  Li14  1  0.91778586  0.58659805  0.40705156  1
  Li  Li15  1  0.58432133  0.91964393  0.74042165  1
  Li  Li16  1  0.08035752  0.41567930  0.24042121  1
  Li  Li17  1  0.08030536  0.66467977  0.74042307  1
  Br  Br18  1  0.33146448  0.92320994  0.74101111  1
  Br  Br19  1  0.33145440  0.40825945  0.24097213  1
  Br  Br20  1  0.41010018  0.33530735  0.90775652  1
  Br  Br21  1  -0.07484187  0.58988101  0.90773507  1
  Br  Br22  1  0.74341228  0.74158964  0.07441072  1
  Br  Br23  1  0.07680665  0.40829243  0.74098871  1
  Br  Br24  1  -0.07475626  0.33530101  0.40773774  1
  Br  Br25  1  0.41011792  0.07484143  0.40773399  1
  Br  Br26  1  0.59174046  0.66854664  0.74097222  1
  Br  Br27  1  0.59170764  0.92319324  0.24098834  1
  Br  Br28  1  0.66469274  0.58990095  0.40775613  1
  Br  Br29  1  0.66469876  0.07475669  0.90773834  1
  Br  Br30  1  0.25843988  0.00182753  0.07437787  1
  Br  Br31  1  0.25841129  0.25658761  0.57441129  1
  Br  Br32  1  0.07678959  0.66853434  0.24101082  1
  Br  Br33  1  0.74338893  0.00179533  0.57441079  1
  Br  Br34  1  -0.00179492  0.25661127  0.07441073  1
  Br  Br35  1  -0.00182790  0.74155892  0.57437824  1
