# generated using pymatgen
data_LiI
_symmetry_space_group_name_H-M   'P 1'
_cell_length_a   4.22839706
_cell_length_b   7.34700859
_cell_length_c   6.98173793
_cell_angle_alpha   89.99999633
_cell_angle_beta   89.99999472
_cell_angle_gamma   89.99998262
_symmetry_Int_Tables_number   1
_chemical_formula_structural   LiI
_chemical_formula_sum   'Li4 I4'
_cell_volume   216.89515589
_cell_formula_units_Z   4
loop_
 _symmetry_equiv_pos_site_id
 _symmetry_equiv_pos_as_xyz
  1  'x, y, z'
loop_
 _atom_site_type_symbol
 _atom_site_label
 _atom_site_symmetry_multiplicity
 _atom_site_fract_x
 _atom_site_fract_y
 _atom_site_fract_z
 _atom_site_occupancy
  Li  Li0  1  0.24969054  0.50004964  0.50085848  1
  Li  Li1  1  0.75032367  0.00004203  0.99913535  1
  Li  Li2  1  0.25030947  0.49995014  0.00085809  1
  Li  Li3  1  0.74967620  -0.00004202  0.49913519  1
  I  I4  1  0.24988036  0.16583749  0.75022593  1
  I  I5  1  0.75012130  0.66583747  0.74978054  1
  I  I6  1  0.25011965  0.83416258  0.25022581  1
  I  I7  1  0.74987882  0.33416266  0.24978062  1
