# generated using pymatgen
data_LiBr
_symmetry_space_group_name_H-M   'P 1'
_cell_length_a   14.60057305
_cell_length_b   13.71204308
_cell_length_c   3.89708765
_cell_angle_alpha   89.99969940
_cell_angle_beta   89.99957764
_cell_angle_gamma   89.96661875
_symmetry_Int_Tables_number   1
_chemical_formula_structural   LiBr
_chemical_formula_sum   'Li16 Br16'
_cell_volume   780.21118274
_cell_formula_units_Z   16
loop_
 _symmetry_equiv_pos_site_id
 _symmetry_equiv_pos_as_xyz
  1  'x, y, z'
loop_
 _atom_site_type_symbol
 _atom_site_label
 _atom_site_symmetry_multiplicity
 _atom_site_fract_x
 _atom_site_fract_y
 _atom_site_fract_z
 _atom_site_occupancy
  Li  Li0  1  0.58799583  0.32443896  0.33907659  1
  Li  Li1  1  0.41200151  0.67556546  0.33905605  1
  Li  Li2  1  0.66206668  0.57429759  0.59120898  1
  Li  Li3  1  0.91200567  0.67556220  0.83906667  1
  Li  Li4  1  0.16206788  0.57429345  0.09121608  1
  Li  Li5  1  0.83793390  0.92570438  0.59123590  1
  Li  Li6  1  0.08799368  0.32443852  0.83907138  1
  Li  Li7  1  0.16206560  0.07429764  0.59119592  1
  Li  Li8  1  0.83793209  0.42570453  0.09121831  1
  Li  Li9  1  0.08799891  0.82443518  0.33907602  1
  Li  Li10  1  0.91200253  0.17556035  0.33905245  1
  Li  Li11  1  0.66206413  0.07429049  0.09122307  1
  Li  Li12  1  0.33793208  0.92570516  0.09120112  1
  Li  Li13  1  0.33793196  0.42570481  0.59123108  1
  Li  Li14  1  0.58799480  0.82443753  0.83906888  1
  Li  Li15  1  0.41200482  0.17556310  0.83906787  1
  Br  Br16  1  0.42668955  0.84895527  0.58968675  1
  Br  Br17  1  0.57331172  0.15104499  0.58970808  1
  Br  Br18  1  0.82313081  0.09914312  0.83837100  1
  Br  Br19  1  0.07330952  0.15104567  0.08968807  1
  Br  Br20  1  0.32313453  0.09914240  0.33838370  1
  Br  Br21  1  0.67686810  0.40085902  0.83837930  1
  Br  Br22  1  0.92669186  0.84895453  0.08971065  1
  Br  Br23  1  0.32313431  0.59914310  0.83837971  1
  Br  Br24  1  0.67686847  0.90085528  0.33837882  1
  Br  Br25  1  0.92668895  0.34895325  0.58968942  1
  Br  Br26  1  0.07331304  0.65104383  0.58970840  1
  Br  Br27  1  0.82313366  0.59914319  0.33837731  1
  Br  Br28  1  0.17686609  0.40085728  0.33838165  1
  Br  Br29  1  0.17686738  0.90085920  0.83838261  1
  Br  Br30  1  0.42668977  0.34895445  0.08971464  1
  Br  Br31  1  0.57331016  0.65104606  0.08969304  1
