# generated using pymatgen
data_LiBr
_symmetry_space_group_name_H-M   'P 1'
_cell_length_a   7.78310381
_cell_length_b   7.78997226
_cell_length_c   11.02620234
_cell_angle_alpha   90.00000167
_cell_angle_beta   90.00000260
_cell_angle_gamma   89.99993737
_symmetry_Int_Tables_number   1
_chemical_formula_structural   LiBr
_chemical_formula_sum   'Li16 Br16'
_cell_volume   668.52044250
_cell_formula_units_Z   16
loop_
 _symmetry_equiv_pos_site_id
 _symmetry_equiv_pos_as_xyz
  1  'x, y, z'
loop_
 _atom_site_type_symbol
 _atom_site_label
 _atom_site_symmetry_multiplicity
 _atom_site_fract_x
 _atom_site_fract_y
 _atom_site_fract_z
 _atom_site_occupancy
  Li  Li0  1  0.74782695  0.50062361  0.02729826  1
  Li  Li1  1  0.00069857  0.74780993  0.27733595  1
  Li  Li2  1  0.25218197  0.50062657  0.52730248  1
  Li  Li3  1  0.25217748  0.49937490  0.02730297  1
  Li  Li4  1  -0.00070180  0.25219060  0.27733826  1
  Li  Li5  1  0.49929999  0.24780867  0.27733618  1
  Li  Li6  1  0.50069781  0.75219049  0.27733652  1
  Li  Li7  1  -0.00070125  0.74780876  0.77733638  1
  Li  Li8  1  0.00070060  0.25219541  0.77733817  1
  Li  Li9  1  0.75218064  -0.00062203  0.52730385  1
  Li  Li10  1  0.49930036  0.75219099  0.77733700  1
  Li  Li11  1  0.24782441  0.00062224  0.52730111  1
  Li  Li12  1  0.50069796  0.24780733  0.77733564  1
  Li  Li13  1  0.75217385  0.00062153  0.02730304  1
  Li  Li14  1  0.24782177  -0.00062293  0.02730229  1
  Li  Li15  1  0.74782698  0.49937387  0.52729814  1
  Br  Br16  1  0.49965593  0.75085842  0.02674743  1
  Br  Br17  1  0.25081651  0.49966989  0.27674890  1
  Br  Br18  1  0.50034435  0.75085905  0.52674735  1
  Br  Br19  1  0.50034279  0.24914088  0.02674736  1
  Br  Br20  1  0.74918252  0.50032991  0.27674806  1
  Br  Br21  1  0.24918081  -0.00033055  0.27674891  1
  Br  Br22  1  0.75081685  0.00033049  0.27674953  1
  Br  Br23  1  0.74918314  0.49967027  0.77674825  1
  Br  Br24  1  0.25081626  0.50033026  0.77674928  1
  Br  Br25  1  0.00034325  0.74914183  0.52674730  1
  Br  Br26  1  0.24918206  0.00032970  0.77674873  1
  Br  Br27  1  -0.00034186  0.25085783  0.52674785  1
  Br  Br28  1  0.75081560  -0.00032940  0.77674904  1
  Br  Br29  1  0.00034137  0.25085740  0.02674740  1
  Br  Br30  1  -0.00034292  0.74914289  0.02674725  1
  Br  Br31  1  0.49965704  0.24914116  0.52674728  1
