# generated using pymatgen
data_LiI
_symmetry_space_group_name_H-M   'P 1'
_cell_length_a   6.65551331
_cell_length_b   6.61299214
_cell_length_c   6.42408115
_cell_angle_alpha   90.00059812
_cell_angle_beta   90.00040805
_cell_angle_gamma   89.99976806
_symmetry_Int_Tables_number   1
_chemical_formula_structural   LiI
_chemical_formula_sum   'Li4 I4'
_cell_volume   282.74216645
_cell_formula_units_Z   4
loop_
 _symmetry_equiv_pos_site_id
 _symmetry_equiv_pos_as_xyz
  1  'x, y, z'
loop_
 _atom_site_type_symbol
 _atom_site_label
 _atom_site_symmetry_multiplicity
 _atom_site_fract_x
 _atom_site_fract_y
 _atom_site_fract_z
 _atom_site_occupancy
  Li  Li0  1  0.74968939  0.49811544  0.74389324  1
  Li  Li1  1  0.24968994  0.50188628  0.74389255  1
  Li  Li2  1  0.25030997  0.50189147  0.24389371  1
  Li  Li3  1  0.75031151  0.49810808  0.24389337  1
  I  I4  1  0.00133798  0.27052403  -0.00589346  1
  I  I5  1  0.50133879  0.72947570  -0.00589479  1
  I  I6  1  -0.00133845  0.72947663  0.49410483  1
  I  I7  1  0.49866087  0.27052236  0.49410695  1
