# generated using pymatgen
data_LiBr
_symmetry_space_group_name_H-M   'P 1'
_cell_length_a   10.69231749
_cell_length_b   10.69231278
_cell_length_c   11.19812384
_cell_angle_alpha   90.00186075
_cell_angle_beta   89.99810775
_cell_angle_gamma   120.00474680
_symmetry_Int_Tables_number   1
_chemical_formula_structural   LiBr
_chemical_formula_sum   'Li18 Br18'
_cell_volume   1108.66062317
_cell_formula_units_Z   18
loop_
 _symmetry_equiv_pos_site_id
 _symmetry_equiv_pos_as_xyz
  1  'x, y, z'
loop_
 _atom_site_type_symbol
 _atom_site_label
 _atom_site_symmetry_multiplicity
 _atom_site_fract_x
 _atom_site_fract_y
 _atom_site_fract_z
 _atom_site_occupancy
  Li  Li0  1  0.41963987  0.08678189  0.29758777  1
  Li  Li1  1  0.41964168  0.33285827  0.79758502  1
  Li  Li2  1  0.24650002  0.24693531  0.46431225  1
  Li  Li3  1  0.00042894  0.75349783  0.46431605  1
  Li  Li4  1  0.58001773  0.66641708  0.63095728  1
  Li  Li5  1  0.91322657  0.33285641  0.29759202  1
  Li  Li6  1  0.00043235  0.24694286  0.96430525  1
  Li  Li7  1  0.24650231  0.99957095  0.96431557  1
  Li  Li8  1  0.66714152  0.58035806  0.29758516  1
  Li  Li9  1  0.66714349  0.08677340  0.79759215  1
  Li  Li10  1  0.75306478  0.75350009  0.96431302  1
  Li  Li11  1  0.75305748  0.99956755  0.46430565  1
  Li  Li12  1  0.33357794  0.91360289  0.63095589  1
  Li  Li13  1  0.33358298  0.41998307  0.13095698  1
  Li  Li14  1  0.91321834  0.58036080  0.79758708  1
  Li  Li15  1  0.58002163  0.91359923  0.13095585  1
  Li  Li16  1  0.08640081  0.41997837  0.63095631  1
  Li  Li17  1  0.08639665  0.66642188  0.13095636  1
  Br  Br18  1  0.56558767  0.66681730  0.13103433  1
  Br  Br19  1  0.56557236  0.89875303  0.63102177  1
  Br  Br20  1  0.66653552  0.10116814  0.29765935  1
  Br  Br21  1  0.43463188  0.33346726  0.29764030  1
  Br  Br22  1  -0.00014281  0.23199008  0.46425825  1
  Br  Br23  1  0.33318404  0.89877122  0.13100904  1
  Br  Br24  1  0.43464498  0.10117362  0.79765049  1
  Br  Br25  1  0.66653230  0.56536796  0.79764084  1
  Br  Br26  1  0.10124680  0.43442804  0.13102181  1
  Br  Br27  1  0.10122913  0.66681564  0.63100901  1
  Br  Br28  1  0.89883130  0.33346488  0.79765897  1
  Br  Br29  1  0.89882605  0.56535426  0.29765081  1
  Br  Br30  1  0.76801644  0.76787644  0.46426916  1
  Br  Br31  1  0.76801026  0.00014280  0.96425848  1
  Br  Br32  1  0.33318307  0.43441239  0.63103432  1
  Br  Br33  1  -0.00014399  0.76786354  0.96428280  1
  Br  Br34  1  0.23213642  0.00014409  0.46428273  1
  Br  Br35  1  0.23212347  0.23198337  0.96426887  1
