# generated using pymatgen
data_LiI
_symmetry_space_group_name_H-M   'P 1'
_cell_length_a   9.38644337
_cell_length_b   9.38637033
_cell_length_c   12.18405607
_cell_angle_alpha   89.99990929
_cell_angle_beta   90.00010189
_cell_angle_gamma   89.99943502
_symmetry_Int_Tables_number   1
_chemical_formula_structural   LiI
_chemical_formula_sum   'Li16 I16'
_cell_volume   1073.47179630
_cell_formula_units_Z   16
loop_
 _symmetry_equiv_pos_site_id
 _symmetry_equiv_pos_as_xyz
  1  'x, y, z'
loop_
 _atom_site_type_symbol
 _atom_site_label
 _atom_site_symmetry_multiplicity
 _atom_site_fract_x
 _atom_site_fract_y
 _atom_site_fract_z
 _atom_site_occupancy
  Li  Li0  1  0.66154189  0.81036730  0.05396777  1
  Li  Li1  1  0.68963407  0.16153397  0.44602805  1
  Li  Li2  1  0.66153715  0.31036771  0.19602720  1
  Li  Li3  1  0.33845840  0.18962969  0.05397056  1
  Li  Li4  1  0.31037231  0.83847238  0.44602539  1
  Li  Li5  1  0.18963297  0.16153828  0.30397017  1
  Li  Li6  1  0.81037103  0.83845756  0.30396573  1
  Li  Li7  1  0.68963125  0.66153859  0.80396867  1
  Li  Li8  1  0.31036835  0.33845624  0.80396841  1
  Li  Li9  1  0.83845599  0.68963088  0.55396738  1
  Li  Li10  1  0.81036605  0.33846318  0.94602879  1
  Li  Li11  1  0.16153867  0.31037313  0.55396947  1
  Li  Li12  1  0.18963154  0.66152697  0.94602221  1
  Li  Li13  1  0.16151752  0.81037118  0.69602258  1
  Li  Li14  1  0.83846364  0.18963363  0.69602953  1
  Li  Li15  1  0.33847704  0.68963204  0.19602362  1
  I  I16  1  0.22406753  0.95737306  0.15058755  1
  I  I17  1  0.54262778  0.72406240  0.34942180  1
  I  I18  1  0.22405971  0.45737192  0.09942048  1
  I  I19  1  0.77594229  0.04262643  0.15058277  1
  I  I20  1  0.45737667  0.27593495  0.34941999  1
  I  I21  1  0.04262769  0.72406680  0.40058764  1
  I  I22  1  0.95737595  0.27594009  0.40058239  1
  I  I23  1  0.54262422  0.22406103  0.90058243  1
  I  I24  1  0.45737573  0.77593532  0.90058644  1
  I  I25  1  0.27593238  0.54262964  0.65058884  1
  I  I26  1  0.95737407  0.77593740  0.84942171  1
  I  I27  1  0.72405888  0.45737308  0.65058222  1
  I  I28  1  0.04262232  0.22406381  0.84942029  1
  I  I29  1  0.72406463  0.95737403  0.59941944  1
  I  I30  1  0.27593824  0.04263225  0.59942026  1
  I  I31  1  0.77593404  0.54262508  0.09942022  1
