# generated using pymatgen
data_LiBr
_symmetry_space_group_name_H-M   'P 1'
_cell_length_a   11.91017146
_cell_length_b   11.91016836
_cell_length_c   7.32922951
_cell_angle_alpha   90.00163514
_cell_angle_beta   89.99836941
_cell_angle_gamma   120.00720437
_symmetry_Int_Tables_number   1
_chemical_formula_structural   LiBr
_chemical_formula_sum   'Li18 Br18'
_cell_volume   900.31261431
_cell_formula_units_Z   18
loop_
 _symmetry_equiv_pos_site_id
 _symmetry_equiv_pos_as_xyz
  1  'x, y, z'
loop_
 _atom_site_type_symbol
 _atom_site_label
 _atom_site_symmetry_multiplicity
 _atom_site_fract_x
 _atom_site_fract_y
 _atom_site_fract_z
 _atom_site_occupancy
  Li  Li0  1  0.29110393  0.83244597  0.36304713  1
  Li  Li1  1  0.29108240  0.45867133  0.86301697  1
  Li  Li2  1  0.50088795  0.37556287  0.52971039  1
  Li  Li3  1  0.87467368  0.49909004  0.52970149  1
  Li  Li4  1  0.83424361  0.79199353  0.69636595  1
  Li  Li5  1  0.16757689  0.45866059  0.36303480  1
  Li  Li6  1  0.87466282  0.37558421  0.02968560  1
  Li  Li7  1  0.50091110  0.12532705  0.02970003  1
  Li  Li8  1  0.54132832  0.70891742  0.36301679  1
  Li  Li9  1  0.54133984  0.83242261  0.86303445  1
  Li  Li10  1  0.62443706  0.49911062  0.02971074  1
  Li  Li11  1  0.62441632  0.12533890  0.52968425  1
  Li  Li12  1  0.20799551  0.04225059  0.69635189  1
  Li  Li13  1  0.20800565  0.16575560  0.19636573  1
  Li  Li14  1  0.16755579  0.70889696  0.86304682  1
  Li  Li15  1  0.83422228  0.04222959  0.19637806  1
  Li  Li16  1  0.95776969  0.16577776  0.69637858  1
  Li  Li17  1  0.95774893  0.79200337  0.19635074  1
  Br  Br18  1  0.04245197  0.83403627  0.86453484  1
  Br  Br19  1  0.04245316  0.20840282  0.36454842  1
  Br  Br20  1  0.49929695  0.62421412  0.03119934  1
  Br  Br21  1  0.12491178  0.50069792  0.03121140  1
  Br  Br22  1  0.83263517  0.54175433  0.19787813  1
  Br  Br23  1  0.16596856  0.20842191  0.86454375  1
  Br  Br24  1  0.12493110  0.62421450  0.53121551  1
  Br  Br25  1  0.49930307  0.87508923  0.53121159  1
  Br  Br26  1  0.79159763  0.95754674  0.86454825  1
  Br  Br27  1  0.79157803  0.83403115  0.36454395  1
  Br  Br28  1  0.37578491  0.50070332  0.53119897  1
  Br  Br29  1  0.37578682  0.87506927  0.03121571  1
  Br  Br30  1  0.45826350  0.29087932  0.19788113  1
  Br  Br31  1  0.45824451  0.16736469  0.69787790  1
  Br  Br32  1  0.16596260  0.95754777  0.36453485  1
  Br  Br33  1  0.83262994  0.29088170  0.69786754  1
  Br  Br34  1  0.70911882  0.16736963  0.19786757  1
  Br  Br35  1  0.70911969  0.54173631  0.69788101  1
