# generated using pymatgen
data_LiBr
_symmetry_space_group_name_H-M   'P 1'
_cell_length_a   4.44834118
_cell_length_b   7.84333936
_cell_length_c   5.61768797
_cell_angle_alpha   90.00000035
_cell_angle_beta   90.51379358
_cell_angle_gamma   90.00000305
_symmetry_Int_Tables_number   1
_chemical_formula_structural   LiBr
_chemical_formula_sum   'Li4 Br4'
_cell_volume   195.99240703
_cell_formula_units_Z   4
loop_
 _symmetry_equiv_pos_site_id
 _symmetry_equiv_pos_as_xyz
  1  'x, y, z'
loop_
 _atom_site_type_symbol
 _atom_site_label
 _atom_site_symmetry_multiplicity
 _atom_site_fract_x
 _atom_site_fract_y
 _atom_site_fract_z
 _atom_site_occupancy
  Li  Li0  1  0.14935345  0.33330039  0.52663465  1
  Li  Li1  1  0.64935394  0.83330045  0.52663466  1
  Li  Li2  1  0.14935423  0.66669958  0.02663448  1
  Li  Li3  1  0.64935370  0.16669969  0.02663430  1
  Br  Br4  1  0.64939960  0.83563657  0.02691441  1
  Br  Br5  1  0.14939926  0.33563650  0.02691441  1
  Br  Br6  1  0.64939906  0.16436343  0.52691441  1
  Br  Br7  1  0.14939940  0.66436339  0.52691441  1
