# generated using pymatgen
data_KI
_symmetry_space_group_name_H-M   'P 1'
_cell_length_a   7.18688657
_cell_length_b   7.18688659
_cell_length_c   7.19504207
_cell_angle_alpha   89.99999936
_cell_angle_beta   90.00000052
_cell_angle_gamma   89.99999996
_symmetry_Int_Tables_number   1
_chemical_formula_structural   KI
_chemical_formula_sum   'K4 I4'
_cell_volume   371.63355540
_cell_formula_units_Z   4
loop_
 _symmetry_equiv_pos_site_id
 _symmetry_equiv_pos_as_xyz
  1  'x, y, z'
loop_
 _atom_site_type_symbol
 _atom_site_label
 _atom_site_symmetry_multiplicity
 _atom_site_fract_x
 _atom_site_fract_y
 _atom_site_fract_z
 _atom_site_occupancy
  K  K0  1  0.24991131  0.25150220  0.75082976  1
  K  K1  1  0.75008869  0.74849781  0.75082991  1
  K  K2  1  0.74849781  0.24991131  0.24917030  1
  K  K3  1  0.25150219  0.75008868  0.24917003  1
  I  I4  1  0.24888512  0.25007682  0.25091654  1
  I  I5  1  0.75111488  0.74992318  0.25091653  1
  I  I6  1  0.74992317  0.24888512  0.74908355  1
  I  I7  1  0.25007683  0.75111489  0.74908337  1
