# generated using pymatgen
data_LiBr
_symmetry_space_group_name_H-M   'P 1'
_cell_length_a   7.78787956
_cell_length_b   7.78680287
_cell_length_c   11.02941325
_cell_angle_alpha   89.99996447
_cell_angle_beta   89.99999949
_cell_angle_gamma   89.99964167
_symmetry_Int_Tables_number   1
_chemical_formula_structural   LiBr
_chemical_formula_sum   'Li16 Br16'
_cell_volume   668.85321016
_cell_formula_units_Z   16
loop_
 _symmetry_equiv_pos_site_id
 _symmetry_equiv_pos_as_xyz
  1  'x, y, z'
loop_
 _atom_site_type_symbol
 _atom_site_label
 _atom_site_symmetry_multiplicity
 _atom_site_fract_x
 _atom_site_fract_y
 _atom_site_fract_z
 _atom_site_occupancy
  Li  Li0  1  0.74987182  -0.00022021  0.72921368  1
  Li  Li1  1  0.49966978  0.75006986  -0.02110997  1
  Li  Li2  1  0.25012130  -0.00021455  0.22921261  1
  Li  Li3  1  0.25012841  0.00022047  0.72921518  1
  Li  Li4  1  0.50033245  0.24992156  -0.02111233  1
  Li  Li5  1  0.00033374  0.25007716  -0.02111732  1
  Li  Li6  1  -0.00033576  0.74992831  -0.02111607  1
  Li  Li7  1  0.50033907  0.75007288  0.47888441  1
  Li  Li8  1  0.49965971  0.24991952  0.47888360  1
  Li  Li9  1  0.75012570  0.50021926  0.22921639  1
  Li  Li10  1  0.00033509  0.74992299  0.47888832  1
  Li  Li11  1  0.24987427  0.49977976  0.22921392  1
  Li  Li12  1  -0.00033055  0.25007072  0.47888761  1
  Li  Li13  1  0.75012674  0.49979032  0.72921392  1
  Li  Li14  1  0.24987196  0.50021025  0.72921797  1
  Li  Li15  1  0.74987816  0.00021588  0.22921728  1
  Br  Br16  1  -0.00001807  0.75016916  0.22920681  1
  Br  Br17  1  0.25018998  0.00004405  0.47923629  1
  Br  Br18  1  0.00002249  0.75016971  0.72920746  1
  Br  Br19  1  0.00001737  0.24983296  0.22920581  1
  Br  Br20  1  0.74980955  -0.00004329  0.47923652  1
  Br  Br21  1  0.24980684  0.50004416  0.47923656  1
  Br  Br22  1  0.75019118  0.49995779  0.47923646  1
  Br  Br23  1  0.74980898  0.00004384  0.97923609  1
  Br  Br24  1  0.25019110  -0.00004144  0.97923631  1
  Br  Br25  1  0.50001774  0.74983169  0.72920730  1
  Br  Br26  1  0.24981003  0.49995881  0.97923749  1
  Br  Br27  1  0.49998129  0.25016894  0.72920675  1
  Br  Br28  1  0.75019154  0.50004573  0.97923740  1
  Br  Br29  1  0.50002110  0.25016809  0.22920757  1
  Br  Br30  1  0.49997983  0.74983232  0.22920747  1
  Br  Br31  1  -0.00002284  0.24983328  0.72920689  1
