# generated using pymatgen
data_LiBr
_symmetry_space_group_name_H-M   'P 1'
_cell_length_a   4.18066057
_cell_length_b   4.18067759
_cell_length_c   10.04837799
_cell_angle_alpha   89.99862597
_cell_angle_beta   90.00139047
_cell_angle_gamma   120.00038230
_symmetry_Int_Tables_number   1
_chemical_formula_structural   LiBr
_chemical_formula_sum   'Li3 Br3'
_cell_volume   152.09554988
_cell_formula_units_Z   3
loop_
 _symmetry_equiv_pos_site_id
 _symmetry_equiv_pos_as_xyz
  1  'x, y, z'
loop_
 _atom_site_type_symbol
 _atom_site_label
 _atom_site_symmetry_multiplicity
 _atom_site_fract_x
 _atom_site_fract_y
 _atom_site_fract_z
 _atom_site_occupancy
  Li  Li0  1  0.00073794  0.66767391  0.47797913  1
  Li  Li1  1  0.33233489  0.33304210  0.81127431  1
  Li  Li2  1  0.66692095  -0.00073015  0.14460137  1
  Br  Br3  1  -0.00004060  0.66587533  0.22547130  1
  Br  Br4  1  0.33414997  0.33411912  0.55881622  1
  Br  Br5  1  0.66589685  0.00001969  0.89219736  1
