# generated using pymatgen
data_NaI
_symmetry_space_group_name_H-M   'P 1'
_cell_length_a   9.09251081
_cell_length_b   4.15517048
_cell_length_c   7.47739444
_cell_angle_alpha   89.99774106
_cell_angle_beta   89.99953291
_cell_angle_gamma   89.99398566
_symmetry_Int_Tables_number   1
_chemical_formula_structural   NaI
_chemical_formula_sum   'Na4 I4'
_cell_volume   282.50293318
_cell_formula_units_Z   4
loop_
 _symmetry_equiv_pos_site_id
 _symmetry_equiv_pos_as_xyz
  1  'x, y, z'
loop_
 _atom_site_type_symbol
 _atom_site_label
 _atom_site_symmetry_multiplicity
 _atom_site_fract_x
 _atom_site_fract_y
 _atom_site_fract_z
 _atom_site_occupancy
  Na  Na0  1  0.87554998  0.00131126  0.04886876  1
  Na  Na1  1  0.37554961  -0.00131270  0.04886791  1
  Na  Na2  1  0.12445001  -0.00131076  0.54886692  1
  Na  Na3  1  0.62445031  0.00131295  0.54886817  1
  I  I4  1  0.12518307  0.49712845  0.88878962  1
  I  I5  1  0.62518332  0.50287275  0.88878912  1
  I  I6  1  0.87481699  0.50287114  0.38878871  1
  I  I7  1  0.37481672  0.49712691  0.38878866  1
