# generated using pymatgen
data_LiBr
_symmetry_space_group_name_H-M   'P 1'
_cell_length_a   7.78778497
_cell_length_b   7.77406430
_cell_length_c   11.02792336
_cell_angle_alpha   90.00000169
_cell_angle_beta   89.99999986
_cell_angle_gamma   90.00002119
_symmetry_Int_Tables_number   1
_chemical_formula_structural   LiBr
_chemical_formula_sum   'Li16 Br16'
_cell_volume   667.66070842
_cell_formula_units_Z   16
loop_
 _symmetry_equiv_pos_site_id
 _symmetry_equiv_pos_as_xyz
  1  'x, y, z'
loop_
 _atom_site_type_symbol
 _atom_site_label
 _atom_site_symmetry_multiplicity
 _atom_site_fract_x
 _atom_site_fract_y
 _atom_site_fract_z
 _atom_site_occupancy
  Li  Li0  1  0.25094203  0.49983560  0.74860349  1
  Li  Li1  1  0.74905954  0.50016406  0.74860309  1
  Li  Li2  1  -0.00094178  0.74983592  -0.00139620  1
  Li  Li3  1  0.24905754  0.50016431  0.24860305  1
  Li  Li4  1  0.49905903  0.74983549  0.49860404  1
  Li  Li5  1  0.50094217  0.75016385  -0.00139749  1
  Li  Li6  1  0.75094126  0.49983547  0.24860341  1
  Li  Li7  1  0.49905847  0.24983620  -0.00139614  1
  Li  Li8  1  0.50094100  0.25016488  0.49860268  1
  Li  Li9  1  0.75094160  -0.00016388  0.74860330  1
  Li  Li10  1  0.24906031  0.00016371  0.74860330  1
  Li  Li11  1  -0.00094185  0.24983534  0.49860388  1
  Li  Li12  1  0.00094098  0.75016433  0.49860268  1
  Li  Li13  1  0.00094210  0.25016383  -0.00139739  1
  Li  Li14  1  0.25094173  -0.00016471  0.24860337  1
  Li  Li15  1  0.74905670  0.00016528  0.24860308  1
  Br  Br16  1  0.25002631  0.50001069  0.49822420  1
  Br  Br17  1  0.74997393  0.49998936  0.49822423  1
  Br  Br18  1  -0.00002625  0.75001010  0.74822410  1
  Br  Br19  1  0.24997376  0.49999012  0.99822425  1
  Br  Br20  1  0.49997343  0.75001041  0.24822421  1
  Br  Br21  1  0.50002660  0.74998921  0.74822422  1
  Br  Br22  1  0.75002606  0.50001047  0.99822428  1
  Br  Br23  1  0.49997358  0.25001017  0.74822436  1
  Br  Br24  1  0.50002642  0.24999017  0.24822422  1
  Br  Br25  1  0.75002587  0.00001026  0.49822418  1
  Br  Br26  1  0.24997348  -0.00001029  0.49822406  1
  Br  Br27  1  -0.00002643  0.25001092  0.24822408  1
  Br  Br28  1  0.00002582  0.74998976  0.24822430  1
  Br  Br29  1  0.00002599  0.24998965  0.74822416  1
  Br  Br30  1  0.25002669  0.00001010  0.99822419  1
  Br  Br31  1  0.74997389  -0.00001075  0.99822418  1
