# generated using pymatgen
data_LiBr
_symmetry_space_group_name_H-M   'P 1'
_cell_length_a   10.22109839
_cell_length_b   10.22110875
_cell_length_c   12.66971929
_cell_angle_alpha   90.00681528
_cell_angle_beta   89.99315756
_cell_angle_gamma   120.00483670
_symmetry_Int_Tables_number   1
_chemical_formula_structural   LiBr
_chemical_formula_sum   'Li18 Br18'
_cell_volume   1146.23068286
_cell_formula_units_Z   18
loop_
 _symmetry_equiv_pos_site_id
 _symmetry_equiv_pos_as_xyz
  1  'x, y, z'
loop_
 _atom_site_type_symbol
 _atom_site_label
 _atom_site_symmetry_multiplicity
 _atom_site_fract_x
 _atom_site_fract_y
 _atom_site_fract_z
 _atom_site_occupancy
  Li  Li0  1  0.58243259  0.91676587  0.15068972  1
  Li  Li1  1  0.58244280  0.66568319  0.65069129  1
  Li  Li2  1  0.41647570  0.08422093  0.31731337  1
  Li  Li3  1  0.66774884  0.58352542  0.31731422  1
  Li  Li4  1  0.74981093  -0.00111947  0.48389479  1
  Li  Li5  1  0.08323511  0.66565837  0.15068779  1
  Li  Li6  1  0.66772304  0.08420851  0.81731334  1
  Li  Li7  1  0.41647509  0.33224876  0.81731147  1
  Li  Li8  1  0.33431560  0.41755838  0.15069210  1
  Li  Li9  1  0.33434107  0.91676351  0.65068870  1
  Li  Li10  1  0.91577812  0.58352291  0.81731339  1
  Li  Li11  1  0.91579376  0.33227498  0.31731304  1
  Li  Li12  1  0.00109326  0.75091665  0.48390309  1
  Li  Li13  1  0.00111658  0.25018920  -0.01610300  1
  Li  Li14  1  0.08323364  0.41756772  0.65068854  1
  Li  Li15  1  0.74981254  0.75092491  -0.01610294  1
  Li  Li16  1  0.24907738  0.25018824  0.48389854  1
  Li  Li17  1  0.24908424  -0.00109440  -0.01609865  1
  Br  Br18  1  0.08192393  0.41430796  0.15099397  1
  Br  Br19  1  0.08189482  0.66759826  0.65099553  1
  Br  Br20  1  0.91899297  0.58476539  0.31777193  1
  Br  Br21  1  0.66573744  0.08096747  0.31777466  1
  Br  Br22  1  0.25241595  0.00096064  0.48442880  1
  Br  Br23  1  0.58574345  0.66765393  0.15100354  1
  Br  Br24  1  0.66579061  0.58478431  0.81776901  1
  Br  Br25  1  0.91903545  0.33426307  0.81777557  1
  Br  Br26  1  0.33240204  -0.08189793  0.15099422  1
  Br  Br27  1  0.33234933  0.41426237  0.65100258  1
  Br  Br28  1  0.41523440  0.08100892  0.81776993  1
  Br  Br29  1  0.41521194  0.33420844  0.31776781  1
  Br  Br30  1  -0.00090562  0.25146576  0.48441608  1
  Br  Br31  1  -0.00095993  0.74758726  0.98442722  1
  Br  Br32  1  0.58569455  -0.08192340  0.65099675  1
  Br  Br33  1  0.25236260  0.25144241  0.98442199  1
  Br  Br34  1  0.74855579  0.74763655  0.48441965  1
  Br  Br35  1  0.74852999  0.00090493  0.98441756  1
