# generated using pymatgen
data_KI
_symmetry_space_group_name_H-M   'P 1'
_cell_length_a   10.09665191
_cell_length_b   5.11044527
_cell_length_c   7.19683115
_cell_angle_alpha   89.99999884
_cell_angle_beta   90.00000086
_cell_angle_gamma   89.99999247
_symmetry_Int_Tables_number   1
_chemical_formula_structural   KI
_chemical_formula_sum   'K4 I4'
_cell_volume   371.34487910
_cell_formula_units_Z   4
loop_
 _symmetry_equiv_pos_site_id
 _symmetry_equiv_pos_as_xyz
  1  'x, y, z'
loop_
 _atom_site_type_symbol
 _atom_site_label
 _atom_site_symmetry_multiplicity
 _atom_site_fract_x
 _atom_site_fract_y
 _atom_site_fract_z
 _atom_site_occupancy
  K  K0  1  0.12685418  0.74937084  0.37712611  1
  K  K1  1  0.62685418  0.75062921  0.37712618  1
  K  K2  1  0.87314582  0.25062915  0.87712617  1
  K  K3  1  0.37314582  0.24937079  0.87712610  1
  I  I4  1  0.12355409  0.74829689  0.87714375  1
  I  I5  1  0.62355409  0.75170306  0.87714379  1
  I  I6  1  0.87644590  0.25170311  0.37714377  1
  I  I7  1  0.37644590  0.24829694  0.37714373  1
