# generated using pymatgen
data_LiBr
_symmetry_space_group_name_H-M   'P 1'
_cell_length_a   11.51796163
_cell_length_b   11.51796262
_cell_length_c   7.94082597
_cell_angle_alpha   90.00404168
_cell_angle_beta   89.99590943
_cell_angle_gamma   119.99532927
_symmetry_Int_Tables_number   1
_chemical_formula_structural   LiBr
_chemical_formula_sum   'Li18 Br18'
_cell_volume   912.36378601
_cell_formula_units_Z   18
loop_
 _symmetry_equiv_pos_site_id
 _symmetry_equiv_pos_as_xyz
  1  'x, y, z'
loop_
 _atom_site_type_symbol
 _atom_site_label
 _atom_site_symmetry_multiplicity
 _atom_site_fract_x
 _atom_site_fract_y
 _atom_site_fract_z
 _atom_site_occupancy
  Li  Li0  1  0.53504587  0.46223378  0.19397099  1
  Li  Li1  1  0.53501312  0.07283645  0.69394340  1
  Li  Li2  1  0.87110590  0.13162237  0.36048228  1
  Li  Li3  1  0.26049506  0.12884720  0.36045228  1
  Li  Li4  1  0.20446250  0.40615236  0.52710675  1
  Li  Li5  1  0.53781392  0.07283417  0.19394730  1
  Li  Li6  1  0.26048891  0.13165088  0.86045295  1
  Li  Li7  1  0.87115401  0.73950523  0.86045287  1
  Li  Li8  1  0.92716308  0.46498734  0.19394261  1
  Li  Li9  1  0.92716550  0.46218481  0.69394609  1
  Li  Li10  1  0.86837674  0.12889340  0.86048323  1
  Li  Li11  1  0.86835100  0.73951161  0.36045399  1
  Li  Li12  1  0.59384283  0.79831367  0.52710414  1
  Li  Li13  1  0.59384661  0.79553608  0.02710654  1
  Li  Li14  1  0.53776580  0.46495325  0.69397035  1
  Li  Li15  1  0.20441210  0.79827975  0.02714252  1
  Li  Li16  1  0.20172232  0.79559001  0.52714221  1
  Li  Li17  1  0.20168523  0.40615654  0.02710471  1
  Br  Br18  1  0.75912195  0.87846245  0.78726465  1
  Br  Br19  1  0.75913035  0.88061652  0.28725765  1
  Br  Br20  1  0.45487543  0.90758629  0.95409622  1
  Br  Br21  1  0.45278860  0.54522094  0.95408800  1
  Br  Br22  1  0.78810871  0.21391779  0.12068380  1
  Br  Br23  1  0.12143974  0.88057986  0.78726925  1
  Br  Br24  1  0.45275244  0.90758046  0.45408806  1
  Br  Br25  1  0.45477785  0.54721013  0.45408882  1
  Br  Br26  1  0.11938315  0.24087001  0.78725917  1
  Br  Br27  1  0.11942140  0.87856148  0.28726891  1
  Br  Br28  1  0.09241354  0.54512494  0.45409430  1
  Br  Br29  1  0.09241968  0.54724788  0.95408720  1
  Br  Br30  1  0.78605225  0.57420861  0.12067950  1
  Br  Br31  1  0.78608308  0.21189139  0.62068392  1
  Br  Br32  1  0.12153658  0.24087710  0.28726326  1
  Br  Br33  1  0.78820570  0.57421322  0.62068926  1
  Br  Br34  1  0.42578736  0.21179478  0.12068858  1
  Br  Br35  1  0.42579166  0.21394727  0.62067937  1
