# generated using pymatgen
data_LiBr
_symmetry_space_group_name_H-M   'P 1'
_cell_length_a   10.25901593
_cell_length_b   10.25668041
_cell_length_c   9.85236904
_cell_angle_alpha   90.01650730
_cell_angle_beta   90.01397784
_cell_angle_gamma   120.01199277
_symmetry_Int_Tables_number   1
_chemical_formula_structural   LiBr
_chemical_formula_sum   'Li18 Br18'
_cell_volume   897.70009784
_cell_formula_units_Z   18
loop_
 _symmetry_equiv_pos_site_id
 _symmetry_equiv_pos_as_xyz
  1  'x, y, z'
loop_
 _atom_site_type_symbol
 _atom_site_label
 _atom_site_symmetry_multiplicity
 _atom_site_fract_x
 _atom_site_fract_y
 _atom_site_fract_z
 _atom_site_occupancy
  Li  Li0  1  0.38776781  0.44909677  0.85451325  1
  Li  Li1  1  0.60543769  0.72116181  0.47891280  1
  Li  Li2  1  0.61223195  0.55090383  0.14548607  1
  Li  Li3  1  0.06121564  0.61215340  0.85433606  1
  Li  Li4  1  0.11582164  0.39456978  0.47887268  1
  Li  Li5  1  0.44915978  0.06122518  0.14561840  1
  Li  Li6  1  0.21748341  0.27214514  0.18766900  1
  Li  Li7  1  0.55084068  0.93877727  0.85438073  1
  Li  Li8  1  0.93878416  0.38784666  0.14566437  1
  Li  Li9  1  0.78251619  0.72785391  0.81233170  1
  Li  Li10  1  0.88417848  0.60543064  0.52112657  1
  Li  Li11  1  0.72785633  0.94543179  0.18763188  1
  Li  Li12  1  0.27214207  0.05456732  0.81236775  1
  Li  Li13  1  0.39456152  0.27883697  0.52108593  1
  Li  Li14  1  0.05450003  0.78245866  0.18779071  1
  Li  Li15  1  0.94550073  0.21754118  0.81220752  1
  Li  Li16  1  0.27891678  0.88424116  0.47874159  1
  Li  Li17  1  0.72108450  0.11575829  0.52125887  1
  Br  Br18  1  0.80568731  0.75751280  0.31169446  1
  Br  Br19  1  0.71472395  0.13907640  0.02175884  1
  Br  Br20  1  0.19431414  0.24248758  0.68830518  1
  Br  Br21  1  -0.04809253  0.19422038  0.31156276  1
  Br  Br22  1  0.42414593  0.28521861  0.02166318  1
  Br  Br23  1  0.75748025  -0.04815183  0.68834182  1
  Br  Br24  1  0.90919010  0.38144796  0.64500233  1
  Br  Br25  1  0.24252229  0.04815318  0.31166050  1
  Br  Br26  1  0.04809323  0.80577893  0.68843692  1
  Br  Br27  1  0.09080952  0.61855140  0.35499661  1
  Br  Br28  1  0.57585302  0.71478165  -0.02166307  1
  Br  Br29  1  0.61860413  0.52759160  0.64490933  1
  Br  Br30  1  0.38139559  0.47240851  0.35508976  1
  Br  Br31  1  0.28527353  0.86092376  -0.02175671  1
  Br  Br32  1  0.47230696  0.09084075  0.64503678  1
  Br  Br33  1  0.52769405  0.90915825  0.35496621  1
  Br  Br34  1  0.86101957  0.57581738  0.02162949  1
  Br  Br35  1  0.13897959  0.42418295  -0.02163023  1
