# generated using pymatgen
data_LiI
_symmetry_space_group_name_H-M   'P 1'
_cell_length_a   9.48675304
_cell_length_b   9.48660155
_cell_length_c   8.39990283
_cell_angle_alpha   89.99997847
_cell_angle_beta   90.00003284
_cell_angle_gamma   120.01223025
_symmetry_Int_Tables_number   1
_chemical_formula_structural   LiI
_chemical_formula_sum   'Li6 I6'
_cell_volume   654.60544482
_cell_formula_units_Z   6
loop_
 _symmetry_equiv_pos_site_id
 _symmetry_equiv_pos_as_xyz
  1  'x, y, z'
loop_
 _atom_site_type_symbol
 _atom_site_label
 _atom_site_symmetry_multiplicity
 _atom_site_fract_x
 _atom_site_fract_y
 _atom_site_fract_z
 _atom_site_occupancy
  Li  Li0  1  0.31934949  0.85771903  0.21541436  1
  Li  Li1  1  0.46157235  0.31932267  0.88207155  1
  Li  Li2  1  0.53842808  0.68067753  0.88207218  1
  Li  Li3  1  0.85777779  0.53845259  0.54873250  1
  Li  Li4  1  0.14222212  0.46154775  0.54873220  1
  Li  Li5  1  0.68065043  0.14228063  0.21541458  1
  I  I6  1  0.82557139  0.24299320  0.49758183  1
  I  I7  1  0.58269865  0.82569800  0.16420290  1
  I  I8  1  0.41730118  0.17430123  0.16420201  1
  I  I9  1  0.24296011  0.41727211  0.83088763  1
  I  I10  1  0.75704033  0.58272829  0.83088780  1
  I  I11  1  0.17442807  0.75700698  0.49758136  1
