# generated using pymatgen
data_LiBr
_symmetry_space_group_name_H-M   'P 1'
_cell_length_a   5.52201542
_cell_length_b   5.50161409
_cell_length_c   5.50781578
_cell_angle_alpha   89.99999026
_cell_angle_beta   89.97493817
_cell_angle_gamma   89.99999540
_symmetry_Int_Tables_number   1
_chemical_formula_structural   LiBr
_chemical_formula_sum   'Li4 Br4'
_cell_volume   167.32741563
_cell_formula_units_Z   4
loop_
 _symmetry_equiv_pos_site_id
 _symmetry_equiv_pos_as_xyz
  1  'x, y, z'
loop_
 _atom_site_type_symbol
 _atom_site_label
 _atom_site_symmetry_multiplicity
 _atom_site_fract_x
 _atom_site_fract_y
 _atom_site_fract_z
 _atom_site_occupancy
  Li  Li0  1  0.37276178  0.25096034  0.26447673  1
  Li  Li1  1  0.87276195  0.75096030  0.26447642  1
  Li  Li2  1  0.37276669  0.74904094  0.76447380  1
  Li  Li3  1  0.87276779  0.24904059  0.76447259  1
  Br  Br4  1  0.87269177  0.25055090  0.26516069  1
  Br  Br5  1  0.37269161  0.75055091  0.26516102  1
  Br  Br6  1  0.87269380  0.74944795  0.76516068  1
  Br  Br7  1  0.37269401  0.24944807  0.76516075  1
