# generated using pymatgen
data_KI
_symmetry_space_group_name_H-M   'P 1'
_cell_length_a   12.21162814
_cell_length_b   4.39071671
_cell_length_c   6.15015397
_cell_angle_alpha   89.99866409
_cell_angle_beta   90.00004493
_cell_angle_gamma   90.00041431
_symmetry_Int_Tables_number   1
_chemical_formula_structural   KI
_chemical_formula_sum   'K4 I4'
_cell_volume   329.75772329
_cell_formula_units_Z   4
loop_
 _symmetry_equiv_pos_site_id
 _symmetry_equiv_pos_as_xyz
  1  'x, y, z'
loop_
 _atom_site_type_symbol
 _atom_site_label
 _atom_site_symmetry_multiplicity
 _atom_site_fract_x
 _atom_site_fract_y
 _atom_site_fract_z
 _atom_site_occupancy
  K  K0  1  0.62531181  -0.00991313  0.03253836  1
  K  K1  1  0.12531025  0.00991050  0.03253914  1
  K  K2  1  0.37468819  0.00991274  0.53254105  1
  K  K3  1  0.87468974  -0.00991054  0.53254006  1
  I  I4  1  0.62519141  0.48320234  0.53278275  1
  I  I5  1  0.12519110  0.51679150  0.53278260  1
  I  I6  1  0.37480860  0.51679741  0.03278250  1
  I  I7  1  0.87480891  0.48320919  0.03278257  1
