# generated using pymatgen
data_KBr
_symmetry_space_group_name_H-M   'P 1'
_cell_length_a   9.48565960
_cell_length_b   9.48565975
_cell_length_c   6.71134230
_cell_angle_alpha   89.99999619
_cell_angle_beta   90.00000134
_cell_angle_gamma   89.99999895
_symmetry_Int_Tables_number   1
_chemical_formula_structural   KBr
_chemical_formula_sum   'K8 Br8'
_cell_volume   603.87140883
_cell_formula_units_Z   8
loop_
 _symmetry_equiv_pos_site_id
 _symmetry_equiv_pos_as_xyz
  1  'x, y, z'
loop_
 _atom_site_type_symbol
 _atom_site_label
 _atom_site_symmetry_multiplicity
 _atom_site_fract_x
 _atom_site_fract_y
 _atom_site_fract_z
 _atom_site_occupancy
  K  K0  1  0.00022441  0.24978139  0.74848779  1
  K  K1  1  0.75021858  0.00022439  0.25151215  1
  K  K2  1  0.50022441  0.74978140  0.75151239  1
  K  K3  1  0.24978142  -0.00022441  0.25151249  1
  K  K4  1  0.49977559  0.25021860  0.75151221  1
  K  K5  1  -0.00022441  0.75021861  0.74848761  1
  K  K6  1  0.25021859  0.50022440  0.24848752  1
  K  K7  1  0.74978142  0.49977561  0.24848785  1
  Br  Br8  1  0.49969519  0.25004458  0.25072650  1
  Br  Br9  1  0.74995545  0.49969518  0.74927361  1
  Br  Br10  1  -0.00030480  0.75004459  0.24927291  1
  Br  Br11  1  0.25004454  0.50030481  0.74927276  1
  Br  Br12  1  0.00030481  0.24995543  0.24927351  1
  Br  Br13  1  0.50030480  0.74995541  0.25072709  1
  Br  Br14  1  0.24995546  -0.00030481  0.75072725  1
  Br  Br15  1  0.75004455  0.00030482  0.75072639  1
