# generated using pymatgen
data_LiBr
_symmetry_space_group_name_H-M   'P 1'
_cell_length_a   14.51372972
_cell_length_b   14.51373094
_cell_length_c   14.51373096
_cell_angle_alpha   89.99998284
_cell_angle_beta   90.00001924
_cell_angle_gamma   89.99999778
_symmetry_Int_Tables_number   1
_chemical_formula_structural   LiBr
_chemical_formula_sum   'Li48 Br48'
_cell_volume   3057.29374159
_cell_formula_units_Z   48
loop_
 _symmetry_equiv_pos_site_id
 _symmetry_equiv_pos_as_xyz
  1  'x, y, z'
loop_
 _atom_site_type_symbol
 _atom_site_label
 _atom_site_symmetry_multiplicity
 _atom_site_fract_x
 _atom_site_fract_y
 _atom_site_fract_z
 _atom_site_occupancy
  Li  Li0  1  0.00007639  0.24996634  0.87469842  1
  Li  Li1  1  0.87469847  -0.00007657  0.75003443  1
  Li  Li2  1  0.12530171  0.00007675  0.75003365  1
  Li  Li3  1  0.87469826  0.00007661  0.24996602  1
  Li  Li4  1  0.12530155  -0.00007670  0.24996578  1
  Li  Li5  1  0.25003363  0.87469840  0.49992329  1
  Li  Li6  1  0.74996622  0.12530149  0.49992314  1
  Li  Li7  1  0.50007653  0.75003372  0.62530123  1
  Li  Li8  1  0.50007649  0.24996633  0.37469848  1
  Li  Li9  1  0.37469852  -0.00007660  0.25003457  1
  Li  Li10  1  0.62530155  0.49992328  0.24996589  1
  Li  Li11  1  0.75003371  0.37469832  0.49992330  1
  Li  Li12  1  0.62530168  0.50007672  0.75003342  1
  Li  Li13  1  0.37469830  0.50007654  0.24996608  1
  Li  Li14  1  0.37469851  0.49992345  0.75003440  1
  Li  Li15  1  0.24996625  0.62530152  0.49992318  1
  Li  Li16  1  0.75003396  0.62530168  0.50007621  1
  Li  Li17  1  0.25003369  0.62530160  0.00007628  1
  Li  Li18  1  0.74996637  0.37469851  0.00007732  1
  Li  Li19  1  -0.00007651  0.75003351  0.87469839  1
  Li  Li20  1  0.00007652  0.74996647  0.37469848  1
  Li  Li21  1  0.25003376  0.12530163  0.50007627  1
  Li  Li22  1  0.74996636  0.87469854  0.50007719  1
  Li  Li23  1  -0.00007645  0.25003361  0.37469835  1
  Li  Li24  1  -0.00007641  0.74996650  0.62530200  1
  Li  Li25  1  0.00007647  0.25003360  0.62530125  1
  Li  Li26  1  0.24996639  0.37469845  0.50007725  1
  Li  Li27  1  0.49992357  0.75003360  0.37469835  1
  Li  Li28  1  0.49992355  0.24996631  0.62530199  1
  Li  Li29  1  0.62530161  0.00007678  0.25003352  1
  Li  Li30  1  0.37469832  0.00007655  0.74996610  1
  Li  Li31  1  0.62530144  -0.00007677  0.74996592  1
  Li  Li32  1  0.75003358  0.87469835  -0.00007668  1
  Li  Li33  1  0.24996627  0.12530152  -0.00007678  1
  Li  Li34  1  0.75003367  0.12530165  0.00007622  1
  Li  Li35  1  0.24996641  0.87469847  0.00007730  1
  Li  Li36  1  -0.00007650  0.24996643  0.12530194  1
  Li  Li37  1  0.00007649  0.75003359  0.12530131  1
  Li  Li38  1  0.49992351  0.25003368  0.87469835  1
  Li  Li39  1  0.49992356  0.74996629  0.12530196  1
  Li  Li40  1  0.50007638  0.25003374  0.12530130  1
  Li  Li41  1  0.50007639  0.74996621  0.87469841  1
  Li  Li42  1  0.87469854  0.49992354  0.25003449  1
  Li  Li43  1  0.12530169  0.50007667  0.25003362  1
  Li  Li44  1  0.87469831  0.50007653  0.74996609  1
  Li  Li45  1  0.12530148  0.49992328  0.74996582  1
  Li  Li46  1  0.25003350  0.37469835  -0.00007677  1
  Li  Li47  1  0.74996624  0.62530149  -0.00007689  1
  Br  Br48  1  0.25020212  -0.00005938  0.87511037  1
  Br  Br49  1  0.87511021  0.74979809  0.00005904  1
  Br  Br50  1  0.12488959  0.25020177  0.00005931  1
  Br  Br51  1  0.87511030  0.25020186  -0.00005898  1
  Br  Br52  1  0.12488975  0.74979816  -0.00005934  1
  Br  Br53  1  0.50005937  0.87511036  0.24979834  1
  Br  Br54  1  0.49994061  0.12488979  0.24979809  1
  Br  Br55  1  0.75020202  0.00005937  0.62488987  1
  Br  Br56  1  0.75020202  -0.00005935  0.37511027  1
  Br  Br57  1  0.37511027  0.74979820  0.50005899  1
  Br  Br58  1  0.62488970  0.24979820  -0.00005932  1
  Br  Br59  1  0.00005931  0.37511041  0.24979839  1
  Br  Br60  1  0.62488961  0.75020181  0.00005930  1
  Br  Br61  1  0.37511034  0.75020177  -0.00005895  1
  Br  Br62  1  0.37511020  0.24979821  0.00005897  1
  Br  Br63  1  -0.00005922  0.62488980  0.24979821  1
  Br  Br64  1  0.00005927  0.62488961  0.75020185  1
  Br  Br65  1  0.50005929  0.62488959  0.25020198  1
  Br  Br66  1  0.49994069  0.37511025  0.25020172  1
  Br  Br67  1  0.74979789  0.00005931  0.87511026  1
  Br  Br68  1  0.25020208  0.49994060  0.37511034  1
  Br  Br69  1  0.50005930  0.12488961  0.75020197  1
  Br  Br70  1  0.49994063  0.87511020  0.75020175  1
  Br  Br71  1  0.74979796  0.50005932  0.37511028  1
  Br  Br72  1  0.74979802  0.49994067  0.62488948  1
  Br  Br73  1  0.25020212  0.50005936  0.62488984  1
  Br  Br74  1  -0.00005933  0.37511023  0.75020164  1
  Br  Br75  1  0.24979785  0.00005935  0.37511027  1
  Br  Br76  1  0.24979796  -0.00005933  0.62488957  1
  Br  Br77  1  0.62488967  0.25020185  0.50005939  1
  Br  Br78  1  0.37511037  0.25020180  0.49994103  1
  Br  Br79  1  0.62488983  0.74979814  0.49994059  1
  Br  Br80  1  0.00005938  0.87511040  0.74979854  1
  Br  Br81  1  -0.00005934  0.12488975  0.74979806  1
  Br  Br82  1  0.00005933  0.12488963  0.25020187  1
  Br  Br83  1  -0.00005935  0.87511029  0.25020155  1
  Br  Br84  1  0.74979784  -0.00005929  0.12488950  1
  Br  Br85  1  0.25020226  0.00005938  0.12488989  1
  Br  Br86  1  0.24979790  0.50005937  0.87511024  1
  Br  Br87  1  0.24979790  0.49994058  0.12488953  1
  Br  Br88  1  0.75020215  0.50005947  0.12488989  1
  Br  Br89  1  0.75020199  0.49994055  0.87511029  1
  Br  Br90  1  0.87511027  0.24979805  0.50005898  1
  Br  Br91  1  0.12488968  0.75020190  0.50005939  1
  Br  Br92  1  0.87511043  0.75020204  0.49994105  1
  Br  Br93  1  0.12488976  0.24979815  0.49994065  1
  Br  Br94  1  0.50005934  0.37511038  0.74979833  1
  Br  Br95  1  0.49994071  0.62488975  0.74979790  1
