# generated using pymatgen
data_LiBr
_symmetry_space_group_name_H-M   'P 1'
_cell_length_a   5.50107239
_cell_length_b   5.50168248
_cell_length_c   5.51705459
_cell_angle_alpha   90.00003203
_cell_angle_beta   90.00008012
_cell_angle_gamma   90.00000169
_symmetry_Int_Tables_number   1
_chemical_formula_structural   LiBr
_chemical_formula_sum   'Li4 Br4'
_cell_volume   166.97450434
_cell_formula_units_Z   4
loop_
 _symmetry_equiv_pos_site_id
 _symmetry_equiv_pos_as_xyz
  1  'x, y, z'
loop_
 _atom_site_type_symbol
 _atom_site_label
 _atom_site_symmetry_multiplicity
 _atom_site_fract_x
 _atom_site_fract_y
 _atom_site_fract_z
 _atom_site_occupancy
  Li  Li0  1  -0.00009898  0.25026348  0.14214925  1
  Li  Li1  1  0.49990161  0.74973670  0.14214822  1
  Li  Li2  1  0.00009980  0.74973758  0.64214702  1
  Li  Li3  1  0.50009904  0.25026251  0.64214805  1
  Br  Br4  1  0.00013641  0.24997088  0.64243488  1
  Br  Br5  1  0.50013640  0.75002898  0.64243454  1
  Br  Br6  1  -0.00013714  0.75002930  0.14243440  1
  Br  Br7  1  0.49986287  0.24997058  0.14243469  1
