# generated using pymatgen
data_LiBr
_symmetry_space_group_name_H-M   'P 1'
_cell_length_a   6.50389947
_cell_length_b   3.94537876
_cell_length_c   7.76410786
_cell_angle_alpha   89.99988489
_cell_angle_beta   124.28733568
_cell_angle_gamma   89.99994618
_symmetry_Int_Tables_number   1
_chemical_formula_structural   LiBr
_chemical_formula_sum   'Li4 Br4'
_cell_volume   164.60812779
_cell_formula_units_Z   4
loop_
 _symmetry_equiv_pos_site_id
 _symmetry_equiv_pos_as_xyz
  1  'x, y, z'
loop_
 _atom_site_type_symbol
 _atom_site_label
 _atom_site_symmetry_multiplicity
 _atom_site_fract_x
 _atom_site_fract_y
 _atom_site_fract_z
 _atom_site_occupancy
  Li  Li0  1  0.88798311  0.50261258  0.12234876  1
  Li  Li1  1  0.38798314  0.00261268  0.12234745  1
  Li  Li2  1  0.88798326  0.49738888  0.62234907  1
  Li  Li3  1  0.38798254  -0.00261365  0.62234784  1
  Br  Br4  1  0.38776599  0.50039648  0.87155747  1
  Br  Br5  1  0.88776575  0.00039705  0.87155752  1
  Br  Br6  1  0.38776703  0.49960293  0.37155855  1
  Br  Br7  1  0.88776686  -0.00039695  0.37155862  1
