# generated using pymatgen
data_LiBr
_symmetry_space_group_name_H-M   'P 1'
_cell_length_a   11.85848955
_cell_length_b   11.85848071
_cell_length_c   7.33521927
_cell_angle_alpha   89.99181431
_cell_angle_beta   90.00820347
_cell_angle_gamma   120.00065979
_symmetry_Int_Tables_number   1
_chemical_formula_structural   LiBr
_chemical_formula_sum   'Li18 Br18'
_cell_volume   893.30397345
_cell_formula_units_Z   18
loop_
 _symmetry_equiv_pos_site_id
 _symmetry_equiv_pos_as_xyz
  1  'x, y, z'
loop_
 _atom_site_type_symbol
 _atom_site_label
 _atom_site_symmetry_multiplicity
 _atom_site_fract_x
 _atom_site_fract_y
 _atom_site_fract_z
 _atom_site_occupancy
  Li  Li0  1  0.16743463  0.70862092  0.96114204  1
  Li  Li1  1  0.16733562  0.45878526  0.46126104  1
  Li  Li2  1  0.62471192  0.49923131  0.12780789  1
  Li  Li3  1  0.87455915  0.37526114  0.12780929  1
  Li  Li4  1  0.95807387  0.79210709  0.29447739  1
  Li  Li5  1  0.29140347  0.45877595  0.96114103  1
  Li  Li6  1  0.87454704  0.49932728  0.62792626  1
  Li  Li7  1  0.62473640  0.12543864  0.62780933  1
  Li  Li8  1  0.54121734  0.83266786  0.96126784  1
  Li  Li9  1  0.54122655  0.70859526  0.46114297  1
  Li  Li10  1  0.50076827  0.37528801  0.62780977  1
  Li  Li11  1  0.50067021  0.12545272  0.12792874  1
  Li  Li12  1  0.20788214  0.16600060  0.29459721  1
  Li  Li13  1  0.20789360  0.04192819  0.79447822  1
  Li  Li14  1  0.29137933  0.83256552  0.46114551  1
  Li  Li15  1  0.95804581  0.16589853  0.79447577  1
  Li  Li16  1  0.83410047  0.04195266  0.29447749  1
  Li  Li17  1  0.83400244  0.79211776  0.79459571  1
  Br  Br18  1  0.04206791  0.83374008  0.96284541  1
  Br  Br19  1  0.04206815  0.20831888  0.46291670  1
  Br  Br20  1  0.49959289  0.62460032  0.12950921  1
  Br  Br21  1  0.12505542  0.50046325  0.12959579  1
  Br  Br22  1  0.83287025  0.54160943  0.29626018  1
  Br  Br23  1  0.16620512  0.20827900  0.96292708  1
  Br  Br24  1  0.12501276  0.62459602  0.62958261  1
  Br  Br25  1  0.49953739  0.87494292  0.62959867  1
  Br  Br26  1  0.79168273  -0.04206936  0.96291847  1
  Br  Br27  1  0.79172252  0.83379377  0.46292774  1
  Br  Br28  1  0.37540022  0.50040719  0.62950917  1
  Br  Br29  1  0.37540272  0.87498746  0.12958516  1
  Br  Br30  1  0.45834682  0.29126396  0.29624982  1
  Br  Br31  1  0.45839046  0.16712993  0.79626236  1
  Br  Br32  1  0.16626047  -0.04206617  0.46284656  1
  Br  Br33  1  0.83292458  0.29126312  0.79617883  1
  Br  Br34  1  0.70873404  0.16707336  0.29617971  1
  Br  Br35  1  0.70873727  0.54165214  0.79624856  1
