# generated using pymatgen
data_LiI
_symmetry_space_group_name_H-M   'P 1'
_cell_length_a   12.46859647
_cell_length_b   12.46856647
_cell_length_c   8.95081309
_cell_angle_alpha   90.00057988
_cell_angle_beta   89.99947279
_cell_angle_gamma   120.00271825
_symmetry_Int_Tables_number   1
_chemical_formula_structural   LiI
_chemical_formula_sum   'Li18 I18'
_cell_volume   1205.07844428
_cell_formula_units_Z   18
loop_
 _symmetry_equiv_pos_site_id
 _symmetry_equiv_pos_as_xyz
  1  'x, y, z'
loop_
 _atom_site_type_symbol
 _atom_site_label
 _atom_site_symmetry_multiplicity
 _atom_site_fract_x
 _atom_site_fract_y
 _atom_site_fract_z
 _atom_site_occupancy
  Li  Li0  1  0.93263637  0.66063643  0.89922421  1
  Li  Li1  1  0.93265757  0.27201000  0.39921548  1
  Li  Li2  1  0.67270287  0.73407066  0.06595031  1
  Li  Li3  1  0.06135638  0.32731504  0.06594302  1
  Li  Li4  1  0.00595717  0.60533273  0.23263171  1
  Li  Li5  1  0.33935528  0.27201630  0.89921934  1
  Li  Li6  1  0.06136661  0.73404536  0.56595169  1
  Li  Li7  1  0.67268063  0.93864140  0.56594368  1
  Li  Li8  1  0.72799155  0.06734357  0.89921472  1
  Li  Li9  1  0.72799002  0.66064911  0.39921935  1
  Li  Li10  1  0.26593299  0.32730109  0.56595063  1
  Li  Li11  1  0.26595945  0.93863489  0.06595259  1
  Li  Li12  1  0.39468425  0.40062264  0.23264631  1
  Li  Li13  1  0.39466715  -0.00595965  0.73263398  1
  Li  Li14  1  0.33935781  0.06735976  0.39922683  1
  Li  Li15  1  0.00594235  0.40063848  0.73264456  1
  Li  Li16  1  0.59935853  -0.00594669  0.23264319  1
  Li  Li17  1  0.59938256  0.60531639  0.73264629  1
  I  I18  1  0.90915401  0.47434316  0.49740327  1
  I  I19  1  0.90913910  0.43480167  0.99741382  1
  I  I20  1  0.85899859  0.75752590  0.66401688  1
  I  I21  1  0.89853489  0.14100900  0.66401000  1
  I  I22  1  0.19232313  0.76815812  0.83073950  1
  I  I23  1  0.52565305  0.43479740  0.49742052  1
  I  I24  1  0.89854722  0.75753863  0.16402428  1
  I  I25  1  0.85899056  0.10146274  0.16401176  1
  I  I26  1  0.56519208  0.09085371  0.49741384  1
  I  I27  1  0.56520496  0.47434908  0.99741962  1
  I  I28  1  0.24247997  0.14100535  0.16401660  1
  I  I29  1  0.24246376  0.10145578  0.66402567  1
  I  I30  1  0.23183364  0.42416308  0.83073545  1
  I  I31  1  0.23184078  0.80767423  0.33073770  1
  I  I32  1  0.52565773  0.09084378  0.99740410  1
  I  I33  1  0.19233441  0.42416302  0.33072924  1
  I  I34  1  0.57583712  0.80766435  0.83072918  1
  I  I35  1  0.57583548  0.76816353  0.33073251  1
