# generated using pymatgen
data_LiI
_symmetry_space_group_name_H-M   'P 1'
_cell_length_a   4.56270733
_cell_length_b   4.56491546
_cell_length_c   13.87891422
_cell_angle_alpha   90.00009905
_cell_angle_beta   90.00009266
_cell_angle_gamma   63.39148758
_symmetry_Int_Tables_number   1
_chemical_formula_structural   LiI
_chemical_formula_sum   'Li4 I4'
_cell_volume   258.45858668
_cell_formula_units_Z   4
loop_
 _symmetry_equiv_pos_site_id
 _symmetry_equiv_pos_as_xyz
  1  'x, y, z'
loop_
 _atom_site_type_symbol
 _atom_site_label
 _atom_site_symmetry_multiplicity
 _atom_site_fract_x
 _atom_site_fract_y
 _atom_site_fract_z
 _atom_site_occupancy
  Li  Li0  1  0.34760869  0.84355647  0.16429655  1
  Li  Li1  1  0.00896296  0.50520460  0.41232539  1
  Li  Li2  1  0.65239219  0.15644349  0.66429697  1
  Li  Li3  1  -0.00896316  0.49479509  0.91232575  1
  I  I4  1  -0.00346260  0.50012461  0.61090396  1
  I  I5  1  0.64749619  0.14959052  0.86182022  1
  I  I6  1  0.00346355  0.49987635  0.11090396  1
  I  I7  1  0.35250217  -0.14959114  0.36181984  1
