# generated using pymatgen
data_LiBr
_symmetry_space_group_name_H-M   'P 1'
_cell_length_a   4.48496874
_cell_length_b   12.79331914
_cell_length_c   4.40662335
_cell_angle_alpha   90.00001673
_cell_angle_beta   90.70616726
_cell_angle_gamma   90.00003463
_symmetry_Int_Tables_number   1
_chemical_formula_structural   LiBr
_chemical_formula_sum   'Li4 Br4'
_cell_volume   252.82242893
_cell_formula_units_Z   4
loop_
 _symmetry_equiv_pos_site_id
 _symmetry_equiv_pos_as_xyz
  1  'x, y, z'
loop_
 _atom_site_type_symbol
 _atom_site_label
 _atom_site_symmetry_multiplicity
 _atom_site_fract_x
 _atom_site_fract_y
 _atom_site_fract_z
 _atom_site_occupancy
  Li  Li0  1  0.81643815  0.74812106  0.27483030  1
  Li  Li1  1  0.31643660  0.24812111  0.27483077  1
  Li  Li2  1  0.81643679  0.25187871  0.77482956  1
  Li  Li3  1  0.31643811  0.75187915  0.77482913  1
  Br  Br4  1  0.31720640  0.65372870  0.27479462  1
  Br  Br5  1  0.81720449  0.15372871  0.27479487  1
  Br  Br6  1  0.31720480  0.34627128  0.77479440  1
  Br  Br7  1  0.81720658  0.84627128  0.77479412  1
