# generated using pymatgen
data_LiBr
_symmetry_space_group_name_H-M   'P 1'
_cell_length_a   3.88876889
_cell_length_b   3.88889241
_cell_length_c   9.54543746
_cell_angle_alpha   90.00034999
_cell_angle_beta   90.00382739
_cell_angle_gamma   119.99615946
_symmetry_Int_Tables_number   1
_chemical_formula_structural   LiBr
_chemical_formula_sum   'Li3 Br3'
_cell_volume   125.02052957
_cell_formula_units_Z   3
loop_
 _symmetry_equiv_pos_site_id
 _symmetry_equiv_pos_as_xyz
  1  'x, y, z'
loop_
 _atom_site_type_symbol
 _atom_site_label
 _atom_site_symmetry_multiplicity
 _atom_site_fract_x
 _atom_site_fract_y
 _atom_site_fract_z
 _atom_site_occupancy
  Li  Li0  1  0.33267539  -0.00143251  0.66823317  1
  Li  Li1  1  0.00143083  0.33411323  0.00156524  1
  Li  Li2  1  0.66589134  0.66732857  0.33489053  1
  Br  Br3  1  0.33612353  0.00236652  0.16843879  1
  Br  Br4  1  -0.00236693  0.33373249  0.50176274  1
  Br  Br5  1  0.66624582  0.66389170  0.83508491  1
