# generated using pymatgen
data_NaI
_symmetry_space_group_name_H-M   'P 1'
_cell_length_a   9.24310242
_cell_length_b   9.23631078
_cell_length_c   13.04140410
_cell_angle_alpha   89.99992028
_cell_angle_beta   89.99965642
_cell_angle_gamma   90.00219927
_symmetry_Int_Tables_number   1
_chemical_formula_structural   NaI
_chemical_formula_sum   'Na16 I16'
_cell_volume   1113.37292086
_cell_formula_units_Z   16
loop_
 _symmetry_equiv_pos_site_id
 _symmetry_equiv_pos_as_xyz
  1  'x, y, z'
loop_
 _atom_site_type_symbol
 _atom_site_label
 _atom_site_symmetry_multiplicity
 _atom_site_fract_x
 _atom_site_fract_y
 _atom_site_fract_z
 _atom_site_occupancy
  Na  Na0  1  0.75216010  0.00098532  0.19540658  1
  Na  Na1  1  0.50107746  0.75224718  0.44438762  1
  Na  Na2  1  0.24784017  0.00098528  0.69540448  1
  Na  Na3  1  0.24784015  -0.00098559  0.19540465  1
  Na  Na4  1  0.49892289  0.24775277  0.44438865  1
  Na  Na5  1  -0.00107760  0.25224719  0.44438773  1
  Na  Na6  1  0.00107738  0.74775313  0.44438872  1
  Na  Na7  1  0.49892210  0.75224709  0.94438772  1
  Na  Na8  1  0.50107709  0.24775306  0.94438874  1
  Na  Na9  1  0.74784013  0.49901452  0.69540466  1
  Na  Na10  1  -0.00107738  0.74775282  0.94438863  1
  Na  Na11  1  0.25216002  0.50098546  0.69540664  1
  Na  Na12  1  0.00107716  0.25224724  0.94438762  1
  Na  Na13  1  0.74784019  0.50098532  0.19540457  1
  Na  Na14  1  0.25215990  0.49901462  0.19540692  1
  Na  Na15  1  0.75215984  -0.00098547  0.69540696  1
  I  I16  1  0.00018856  0.74865741  0.69421628  1
  I  I17  1  0.24863000  0.00018489  0.94484250  1
  I  I18  1  -0.00018857  0.74865738  0.19421615  1
  I  I19  1  -0.00018846  0.25134258  0.69421600  1
  I  I20  1  0.75136982  -0.00018485  0.94484367  1
  I  I21  1  0.25136974  0.50018504  0.94484369  1
  I  I22  1  0.74862996  0.49981499  0.94484247  1
  I  I23  1  0.75136991  0.00018496  0.44484370  1
  I  I24  1  0.24863013  -0.00018508  0.44484244  1
  I  I25  1  0.49981159  0.75134258  0.19421600  1
  I  I26  1  0.25137000  0.49981527  0.44484368  1
  I  I27  1  0.50018860  0.24865742  0.19421628  1
  I  I28  1  0.74863019  0.50018498  0.44484251  1
  I  I29  1  0.49981139  0.24865745  0.69421613  1
  I  I30  1  0.50018874  0.75134253  0.69421604  1
  I  I31  1  0.00018878  0.25134250  0.19421604  1
