# generated using pymatgen
data_LiBr
_symmetry_space_group_name_H-M   'P 1'
_cell_length_a   4.20912149
_cell_length_b   4.20898303
_cell_length_c   9.89114154
_cell_angle_alpha   89.99783095
_cell_angle_beta   89.99895663
_cell_angle_gamma   120.00013786
_symmetry_Int_Tables_number   1
_chemical_formula_structural   LiBr
_chemical_formula_sum   'Li3 Br3'
_cell_volume   151.75572387
_cell_formula_units_Z   3
loop_
 _symmetry_equiv_pos_site_id
 _symmetry_equiv_pos_as_xyz
  1  'x, y, z'
loop_
 _atom_site_type_symbol
 _atom_site_label
 _atom_site_symmetry_multiplicity
 _atom_site_fract_x
 _atom_site_fract_y
 _atom_site_fract_z
 _atom_site_occupancy
  Li  Li0  1  0.66619890  -0.00056845  0.36776434  1
  Li  Li1  1  0.00057178  0.66676211  0.70108568  1
  Li  Li2  1  0.33323201  0.33380894  0.03444065  1
  Br  Br3  1  0.66663343  -0.00002696  0.62314994  1
  Br  Br4  1  0.00002206  0.66665655  0.95648468  1
  Br  Br5  1  0.33334182  0.33336779  0.28983389  1
