# generated using pymatgen
data_LiI
_symmetry_space_group_name_H-M   'P 1'
_cell_length_a   15.68999141
_cell_length_b   5.19715748
_cell_length_c   7.07924178
_cell_angle_alpha   89.99987261
_cell_angle_beta   90.00084306
_cell_angle_gamma   90.00028272
_symmetry_Int_Tables_number   1
_chemical_formula_structural   LiI
_chemical_formula_sum   'Li8 I8'
_cell_volume   577.26513471
_cell_formula_units_Z   8
loop_
 _symmetry_equiv_pos_site_id
 _symmetry_equiv_pos_as_xyz
  1  'x, y, z'
loop_
 _atom_site_type_symbol
 _atom_site_label
 _atom_site_symmetry_multiplicity
 _atom_site_fract_x
 _atom_site_fract_y
 _atom_site_fract_z
 _atom_site_occupancy
  Li  Li0  1  0.18285461  0.25064538  0.40296705  1
  Li  Li1  1  0.18285458  0.74935261  0.90296876  1
  Li  Li2  1  0.68285383  0.24935297  0.59703462  1
  Li  Li3  1  0.31714577  0.24935509  0.90296740  1
  Li  Li4  1  0.81714546  0.25064631  0.09703124  1
  Li  Li5  1  0.31714569  0.75064807  0.40296535  1
  Li  Li6  1  0.68285432  0.75064396  0.09703296  1
  Li  Li7  1  0.81714573  0.74935554  0.59703252  1
  I  I8  1  0.85694120  0.75026324  0.21275317  1
  I  I9  1  0.85694103  0.24974249  0.71275332  1
  I  I10  1  0.35694059  0.74973948  0.78724575  1
  I  I11  1  0.64305906  0.74973874  0.71275417  1
  I  I12  1  0.14305877  0.75025849  0.28724663  1
  I  I13  1  0.64305936  0.25025959  0.21275434  1
  I  I14  1  0.35694111  0.25026239  0.28724626  1
  I  I15  1  0.14305890  0.24973566  0.78724646  1
