# generated using pymatgen
data_LiI
_symmetry_space_group_name_H-M   'P 1'
_cell_length_a   11.01696409
_cell_length_b   4.69180041
_cell_length_c   7.95659103
_cell_angle_alpha   89.99950788
_cell_angle_beta   134.81940658
_cell_angle_gamma   90.00005624
_symmetry_Int_Tables_number   1
_chemical_formula_structural   LiI
_chemical_formula_sum   'Li4 I4'
_cell_volume   291.72796945
_cell_formula_units_Z   4
loop_
 _symmetry_equiv_pos_site_id
 _symmetry_equiv_pos_as_xyz
  1  'x, y, z'
loop_
 _atom_site_type_symbol
 _atom_site_label
 _atom_site_symmetry_multiplicity
 _atom_site_fract_x
 _atom_site_fract_y
 _atom_site_fract_z
 _atom_site_occupancy
  Li  Li0  1  0.13759582  -0.00085912  0.30214875  1
  Li  Li1  1  0.86240462  0.49914290  0.19785149  1
  Li  Li2  1  0.86240417  0.00085903  0.69785129  1
  Li  Li3  1  0.13759536  0.50085722  0.80214846  1
  I  I4  1  0.77556514  -0.00055836  0.94939243  1
  I  I5  1  0.22443552  0.49944281  0.55060844  1
  I  I6  1  0.22443481  0.00055842  0.05060753  1
  I  I7  1  0.77556455  0.50055709  0.44939161  1
