# generated using pymatgen
data_LiI
_symmetry_space_group_name_H-M   'P 1'
_cell_length_a   8.27407812
_cell_length_b   8.27490570
_cell_length_c   17.19612966
_cell_angle_alpha   89.99935954
_cell_angle_beta   90.00007736
_cell_angle_gamma   90.00670935
_symmetry_Int_Tables_number   1
_chemical_formula_structural   LiI
_chemical_formula_sum   'Li16 I16'
_cell_volume   1177.37111964
_cell_formula_units_Z   16
loop_
 _symmetry_equiv_pos_site_id
 _symmetry_equiv_pos_as_xyz
  1  'x, y, z'
loop_
 _atom_site_type_symbol
 _atom_site_label
 _atom_site_symmetry_multiplicity
 _atom_site_fract_x
 _atom_site_fract_y
 _atom_site_fract_z
 _atom_site_occupancy
  Li  Li0  1  0.14290170  0.16062718  0.19233819  1
  Li  Li1  1  0.33924763  0.64286238  0.30771794  1
  Li  Li2  1  0.14286205  0.66082256  0.05768256  1
  Li  Li3  1  0.85710937  0.83919858  0.19227231  1
  Li  Li4  1  0.66060518  0.35715984  0.30775806  1
  Li  Li5  1  0.83935958  0.64282109  0.44238412  1
  Li  Li6  1  0.16065987  0.35722438  0.44226882  1
  Li  Li7  1  0.33928378  0.14288180  0.94221573  1
  Li  Li8  1  0.66063774  0.85725353  0.94229557  1
  Li  Li9  1  0.35718423  0.33944251  0.69237727  1
  Li  Li10  1  0.16072493  0.85707632  0.80769336  1
  Li  Li11  1  0.64291429  0.66074707  0.69225644  1
  Li  Li12  1  0.83943291  0.14290833  0.80770604  1
  Li  Li13  1  0.64277370  0.16054889  0.55770780  1
  Li  Li14  1  0.35719259  0.83916113  0.55772887  1
  Li  Li15  1  0.85719335  0.33944621  0.05763369  1
  I  I16  1  0.69582828  0.32766769  0.69443795  1
  I  I17  1  0.17246340  0.19572480  0.80558388  1
  I  I18  1  0.69566178  0.82744649  0.55550333  1
  I  I19  1  0.30436186  0.67245644  0.69449995  1
  I  I20  1  0.82773161  0.80439314  0.80553157  1
  I  I21  1  0.67241610  0.19578850  -0.05552704  1
  I  I22  1  0.32750724  0.80447169  -0.05544556  1
  I  I23  1  0.17242911  0.69540904  0.44449654  1
  I  I24  1  0.82761402  0.30424927  0.44439946  1
  I  I25  1  0.80420009  0.17232066  0.19444492  1
  I  I26  1  0.32750389  0.30422249  0.30553813  1
  I  I27  1  0.19562080  0.82751858  0.19449948  1
  I  I28  1  0.67230838  0.69560555  0.30548311  1
  I  I29  1  0.19557435  0.32771828  0.05550845  1
  I  I30  1  0.80430534  0.67250025  0.05556108  1
  I  I31  1  0.30439087  0.17232535  0.55544801  1
