# generated using pymatgen
data_LiI
_symmetry_space_group_name_H-M   'P 1'
_cell_length_a   7.51068045
_cell_length_b   9.20004437
_cell_length_c   7.98982854
_cell_angle_alpha   90.00003678
_cell_angle_beta   89.99960690
_cell_angle_gamma   90.00042742
_symmetry_Int_Tables_number   1
_chemical_formula_structural   LiI
_chemical_formula_sum   'Li8 I8'
_cell_volume   552.08591368
_cell_formula_units_Z   8
loop_
 _symmetry_equiv_pos_site_id
 _symmetry_equiv_pos_as_xyz
  1  'x, y, z'
loop_
 _atom_site_type_symbol
 _atom_site_label
 _atom_site_symmetry_multiplicity
 _atom_site_fract_x
 _atom_site_fract_y
 _atom_site_fract_z
 _atom_site_occupancy
  Li  Li0  1  0.15640158  0.36970549  0.40947011  1
  Li  Li1  1  0.15640326  0.13029448  0.90947164  1
  Li  Li2  1  0.65640048  0.13029560  0.59053017  1
  Li  Li3  1  0.34359533  0.63029197  0.90947376  1
  Li  Li4  1  0.84359576  0.86970745  0.09052786  1
  Li  Li5  1  0.34359624  0.86970697  0.40947390  1
  Li  Li6  1  0.65640472  0.36970739  0.09052565  1
  Li  Li7  1  0.84359579  0.63029141  0.59052538  1
  I  I8  1  0.78305094  0.12942335  0.91648561  1
  I  I9  1  0.78305136  0.37057637  0.41648496  1
  I  I10  1  0.28305308  0.37057588  0.08351400  1
  I  I11  1  0.71695081  0.87057396  0.41648331  1
  I  I12  1  0.21695145  0.62942755  0.58351535  1
  I  I13  1  0.71694952  0.62942748  0.91648522  1
  I  I14  1  0.28304830  0.12942235  0.58351837  1
  I  I15  1  0.21695138  0.87057227  0.08351473  1
