# generated using pymatgen
data_LiBr
_symmetry_space_group_name_H-M   'P 1'
_cell_length_a   4.09981076
_cell_length_b   6.58288864
_cell_length_c   6.60393311
_cell_angle_alpha   89.99973769
_cell_angle_beta   89.44250943
_cell_angle_gamma   90.00000374
_symmetry_Int_Tables_number   1
_chemical_formula_structural   LiBr
_chemical_formula_sum   'Li4 Br4'
_cell_volume   178.22245698
_cell_formula_units_Z   4
loop_
 _symmetry_equiv_pos_site_id
 _symmetry_equiv_pos_as_xyz
  1  'x, y, z'
loop_
 _atom_site_type_symbol
 _atom_site_label
 _atom_site_symmetry_multiplicity
 _atom_site_fract_x
 _atom_site_fract_y
 _atom_site_fract_z
 _atom_site_occupancy
  Li  Li0  1  0.28311958  0.95118702  0.34226331  1
  Li  Li1  1  0.78312001  0.45118728  0.34226365  1
  Li  Li2  1  0.28311894  0.04881387  0.84226430  1
  Li  Li3  1  0.78312052  0.54881357  0.84226460  1
  Br  Br4  1  0.27968365  0.30043921  0.53595899  1
  Br  Br5  1  0.77968427  0.80043918  0.53595904  1
  Br  Br6  1  0.27968398  0.69955992  0.03595982  1
  Br  Br7  1  0.77968383  0.19955995  0.03596000  1
