# generated using pymatgen
data_LiBr
_symmetry_space_group_name_H-M   'P 1'
_cell_length_a   5.49342752
_cell_length_b   5.51579038
_cell_length_c   5.50913830
_cell_angle_alpha   90.00021903
_cell_angle_beta   89.99998369
_cell_angle_gamma   89.99969802
_symmetry_Int_Tables_number   1
_chemical_formula_structural   LiBr
_chemical_formula_sum   'Li4 Br4'
_cell_volume   166.93016691
_cell_formula_units_Z   4
loop_
 _symmetry_equiv_pos_site_id
 _symmetry_equiv_pos_as_xyz
  1  'x, y, z'
loop_
 _atom_site_type_symbol
 _atom_site_label
 _atom_site_symmetry_multiplicity
 _atom_site_fract_x
 _atom_site_fract_y
 _atom_site_fract_z
 _atom_site_occupancy
  Li  Li0  1  0.49805849  0.75028638  0.89870497  1
  Li  Li1  1  -0.00194125  0.24971313  0.89870519  1
  Li  Li2  1  0.50194037  0.24971258  0.39870740  1
  Li  Li3  1  0.00194043  0.75028736  0.39870751  1
  Br  Br4  1  0.49980973  0.75026563  0.39948031  1
  Br  Br5  1  -0.00019001  0.24973433  0.39948014  1
  Br  Br6  1  0.50019127  0.24973400  0.89948002  1
  Br  Br7  1  0.00019097  0.75026660  0.89947992  1
