# generated using pymatgen
data_LiBr
_symmetry_space_group_name_H-M   'P 1'
_cell_length_a   4.33190962
_cell_length_b   6.56653591
_cell_length_c   7.38671757
_cell_angle_alpha   89.99632999
_cell_angle_beta   90.00015602
_cell_angle_gamma   90.00050560
_symmetry_Int_Tables_number   1
_chemical_formula_structural   LiBr
_chemical_formula_sum   'Li4 Br4'
_cell_volume   210.11990869
_cell_formula_units_Z   4
loop_
 _symmetry_equiv_pos_site_id
 _symmetry_equiv_pos_as_xyz
  1  'x, y, z'
loop_
 _atom_site_type_symbol
 _atom_site_label
 _atom_site_symmetry_multiplicity
 _atom_site_fract_x
 _atom_site_fract_y
 _atom_site_fract_z
 _atom_site_occupancy
  Li  Li0  1  -0.00173889  0.58573713  0.90691007  1
  Li  Li1  1  0.00173862  0.08573570  0.59306690  1
  Li  Li2  1  0.50173618  0.41426667  0.40693336  1
  Li  Li3  1  0.49825641  0.91426053  0.09308989  1
  Br  Br4  1  0.50079705  0.01904284  0.42184062  1
  Br  Br5  1  0.49920467  0.51904989  0.07817095  1
  Br  Br6  1  -0.00079226  0.98095284  0.92182928  1
  Br  Br7  1  0.00079822  0.48095441  0.57815893  1
