# generated using pymatgen
data_LiBr
_symmetry_space_group_name_H-M   'P 1'
_cell_length_a   15.41915800
_cell_length_b   12.27273378
_cell_length_c   3.90389921
_cell_angle_alpha   90.00042859
_cell_angle_beta   90.00000676
_cell_angle_gamma   89.99133914
_symmetry_Int_Tables_number   1
_chemical_formula_structural   LiBr
_chemical_formula_sum   'Li16 Br16'
_cell_volume   738.75522200
_cell_formula_units_Z   16
loop_
 _symmetry_equiv_pos_site_id
 _symmetry_equiv_pos_as_xyz
  1  'x, y, z'
loop_
 _atom_site_type_symbol
 _atom_site_label
 _atom_site_symmetry_multiplicity
 _atom_site_fract_x
 _atom_site_fract_y
 _atom_site_fract_z
 _atom_site_occupancy
  Li  Li0  1  0.83682257  0.92304214  0.53956391  1
  Li  Li1  1  0.16317666  0.07695619  0.53954600  1
  Li  Li2  1  0.41308686  0.17310420  0.78953272  1
  Li  Li3  1  0.66317760  0.07695728  0.03954623  1
  Li  Li4  1  0.91308709  0.17310537  0.28953077  1
  Li  Li5  1  0.08691333  0.32689380  0.78951278  1
  Li  Li6  1  0.33682210  0.92304257  0.03956286  1
  Li  Li7  1  0.91308806  0.67310540  0.78952765  1
  Li  Li8  1  0.08691409  0.82689280  0.28951363  1
  Li  Li9  1  0.33682114  0.42304147  0.53956290  1
  Li  Li10  1  0.66317764  0.57695819  0.53955074  1
  Li  Li11  1  0.41308613  0.67310468  0.28952958  1
  Li  Li12  1  0.58691381  0.32689552  0.28951243  1
  Li  Li13  1  0.58691412  0.82689433  0.78951486  1
  Li  Li14  1  0.83682043  0.42304078  0.03956545  1
  Li  Li15  1  0.16317808  0.57695649  0.03954580  1
  Br  Br16  1  0.68559248  0.38671039  0.79089819  1
  Br  Br17  1  0.31440759  0.61329159  0.79090880  1
  Br  Br18  1  0.56445137  0.63672412  0.04093411  1
  Br  Br19  1  0.81440809  0.61329207  0.29090747  1
  Br  Br20  1  0.06445120  0.63672274  0.54093371  1
  Br  Br21  1  0.93554934  0.86327785  0.04094216  1
  Br  Br22  1  0.18559251  0.38670890  0.29090159  1
  Br  Br23  1  0.06445074  0.13672404  0.04093092  1
  Br  Br24  1  0.93554781  0.36327735  0.54094340  1
  Br  Br25  1  0.18559291  0.88670878  0.79090361  1
  Br  Br26  1  0.81440806  0.11329140  0.79091023  1
  Br  Br27  1  0.56445135  0.13672498  0.54092807  1
  Br  Br28  1  0.43554856  0.86327650  0.54093914  1
  Br  Br29  1  0.43554780  0.36327666  0.04093894  1
  Br  Br30  1  0.68559285  0.88670950  0.29090171  1
  Br  Br31  1  0.31440763  0.11329189  0.29091356  1
