# generated using pymatgen
data_KI
_symmetry_space_group_name_H-M   'P 1'
_cell_length_a   9.78871129
_cell_length_b   4.53483264
_cell_length_c   8.44076958
_cell_angle_alpha   90.00211728
_cell_angle_beta   90.00002331
_cell_angle_gamma   89.99999030
_symmetry_Int_Tables_number   1
_chemical_formula_structural   KI
_chemical_formula_sum   'K4 I4'
_cell_volume   374.68717491
_cell_formula_units_Z   4
loop_
 _symmetry_equiv_pos_site_id
 _symmetry_equiv_pos_as_xyz
  1  'x, y, z'
loop_
 _atom_site_type_symbol
 _atom_site_label
 _atom_site_symmetry_multiplicity
 _atom_site_fract_x
 _atom_site_fract_y
 _atom_site_fract_z
 _atom_site_occupancy
  K  K0  1  0.37712034  -0.00038174  0.93808581  1
  K  K1  1  0.87712033  0.00038150  0.93808553  1
  K  K2  1  0.62287970  0.00038186  0.43808572  1
  K  K3  1  0.12287969  -0.00038180  0.43808604  1
  I  I4  1  0.62646526  0.50145059  0.10423354  1
  I  I5  1  0.12646553  0.49854943  0.10423348  1
  I  I6  1  0.37353440  0.49854946  0.60423362  1
  I  I7  1  0.87353474  0.50145070  0.60423354  1
