# generated using pymatgen
data_LiBr
_symmetry_space_group_name_H-M   'P 1'
_cell_length_a   9.69634509
_cell_length_b   9.69632499
_cell_length_c   13.58103941
_cell_angle_alpha   90.00758712
_cell_angle_beta   89.99229893
_cell_angle_gamma   120.00360852
_symmetry_Int_Tables_number   1
_chemical_formula_structural   LiBr
_chemical_formula_sum   'Li18 Br18'
_cell_volume   1105.76558631
_cell_formula_units_Z   18
loop_
 _symmetry_equiv_pos_site_id
 _symmetry_equiv_pos_as_xyz
  1  'x, y, z'
loop_
 _atom_site_type_symbol
 _atom_site_label
 _atom_site_symmetry_multiplicity
 _atom_site_fract_x
 _atom_site_fract_y
 _atom_site_fract_z
 _atom_site_occupancy
  Li  Li0  1  0.00018255  0.74521723  0.34996101  1
  Li  Li1  1  0.00024227  0.25500859  0.84989884  1
  Li  Li2  1  0.58811520  0.66648468  0.51662629  1
  Li  Li3  1  0.07829991  0.41184561  0.51659367  1
  Li  Li4  1  -0.07851023  0.58836804  0.68326023  1
  Li  Li5  1  0.25482135  0.25503276  0.34992767  1
  Li  Li6  1  0.07832482  0.66642509  0.01656579  1
  Li  Li7  1  0.58815534  0.92170093  0.01659391  1
  Li  Li8  1  0.74499098  -0.00024242  0.34989903  1
  Li  Li9  1  0.74496628  0.74517846  0.84992783  1
  Li  Li10  1  0.33351664  0.41188483  0.01662621  1
  Li  Li11  1  0.33357588  0.92167498  0.51656556  1
  Li  Li12  1  0.41165758  0.33309140  0.68323236  1
  Li  Li13  1  0.41163311  0.07851205  0.18326002  1
  Li  Li14  1  0.25478087  -0.00018297  0.84995929  1
  Li  Li15  1  -0.07855089  0.33315091  0.18329255  1
  Li  Li16  1  0.66684871  0.07854961  0.68329377  1
  Li  Li17  1  0.66690938  0.58834263  0.18323134  1
  Br  Br18  1  0.73125464  0.00012368  0.84983657  1
  Br  Br19  1  0.73136344  0.73119040  0.34983689  1
  Br  Br20  1  0.33320855  0.93540947  0.01650272  1
  Br  Br21  1  0.60221220  0.66683689  0.01646275  1
  Br  Br22  1  0.66649716  0.06445529  0.18312950  1
  Br  Br23  1  -0.00016927  0.73112363  0.84979603  1
  Br  Br24  1  0.60214349  0.93530220  0.51650420  1
  Br  Br25  1  0.33316305  0.39778970  0.51646344  1
  Br  Br26  1  0.26881043  0.26863564  0.84983758  1
  Br  Br27  1  0.26887924  0.00017073  0.34979677  1
  Br  Br28  1  0.06458862  0.66678966  0.51650286  1
  Br  Br29  1  0.06469666  0.39785719  0.01650387  1
  Br  Br30  1  0.93547696  0.60196869  0.18317086  1
  Br  Br31  1  0.93554539  0.33350393  0.68313015  1
  Br  Br32  1  -0.00012404  0.26874307  0.34983581  1
  Br  Br33  1  0.66654277  0.60207712  0.68316951  1
  Br  Br34  1  0.39792254  0.33345740  0.18316981  1
  Br  Br35  1  0.39802838  0.06452295  0.68317004  1
