# generated using pymatgen
data_LiBr
_symmetry_space_group_name_H-M   'P 1'
_cell_length_a   10.07413224
_cell_length_b   10.07409047
_cell_length_c   8.40796454
_cell_angle_alpha   89.99997535
_cell_angle_beta   89.99995304
_cell_angle_gamma   89.99990260
_symmetry_Int_Tables_number   1
_chemical_formula_structural   LiBr
_chemical_formula_sum   'Li16 Br16'
_cell_volume   853.30514751
_cell_formula_units_Z   16
loop_
 _symmetry_equiv_pos_site_id
 _symmetry_equiv_pos_as_xyz
  1  'x, y, z'
loop_
 _atom_site_type_symbol
 _atom_site_label
 _atom_site_symmetry_multiplicity
 _atom_site_fract_x
 _atom_site_fract_y
 _atom_site_fract_z
 _atom_site_occupancy
  Li  Li0  1  0.00015120  0.33144518  0.47494770  1
  Li  Li1  1  0.83143236  0.00015866  0.72499342  1
  Li  Li2  1  0.99985490  0.33144746  -0.02505203  1
  Li  Li3  1  0.99984808  0.66855450  0.47494868  1
  Li  Li4  1  0.16856800  0.99984122  0.72499416  1
  Li  Li5  1  0.66856833  0.50015942  0.72499222  1
  Li  Li6  1  0.33143200  0.49984097  0.72499152  1
  Li  Li7  1  0.16856698  0.00015538  0.22499280  1
  Li  Li8  1  0.83143256  0.99984478  0.22499227  1
  Li  Li9  1  0.49985105  0.16855252  -0.02505190  1
  Li  Li10  1  0.66856685  0.49984433  0.22499428  1
  Li  Li11  1  0.50014935  0.83144494  -0.02505252  1
  Li  Li12  1  0.33143279  0.50015506  0.22499370  1
  Li  Li13  1  0.49985046  0.83144765  0.47494830  1
  Li  Li14  1  0.50015047  0.16855502  0.47494918  1
  Li  Li15  1  0.00014481  0.66855296  -0.02505126  1
  Br  Br16  1  0.50038840  0.30880538  0.72508755  1
  Br  Br17  1  0.80878433  0.50037931  0.97514734  1
  Br  Br18  1  0.49961655  0.30880422  0.22508660  1
  Br  Br19  1  0.49961211  0.69119503  0.72508551  1
  Br  Br20  1  0.19121567  0.49962096  0.97514692  1
  Br  Br21  1  0.69121484  0.00038038  0.97514677  1
  Br  Br22  1  0.30878540  -0.00038312  0.97514718  1
  Br  Br23  1  0.19121387  0.50038319  0.47514650  1
  Br  Br24  1  0.80878556  0.49961633  0.47514647  1
  Br  Br25  1  -0.00038417  0.19119531  0.22508592  1
  Br  Br26  1  0.69121568  -0.00038186  0.47514700  1
  Br  Br27  1  0.00038352  0.80880483  0.22508668  1
  Br  Br28  1  0.30878495  0.00038462  0.47514695  1
  Br  Br29  1  -0.00038769  0.80880482  0.72508762  1
  Br  Br30  1  0.00038741  0.19119528  0.72508766  1
  Br  Br31  1  0.50038337  0.69119526  0.22508812  1
