# generated using pymatgen
data_LiBr
_symmetry_space_group_name_H-M   'P 1'
_cell_length_a   7.78289007
_cell_length_b   5.49605776
_cell_length_c   5.49371938
_cell_angle_alpha   89.99595054
_cell_angle_beta   134.82868240
_cell_angle_gamma   90.00242077
_symmetry_Int_Tables_number   1
_chemical_formula_structural   LiBr
_chemical_formula_sum   'Li4 Br4'
_cell_volume   166.66267469
_cell_formula_units_Z   4
loop_
 _symmetry_equiv_pos_site_id
 _symmetry_equiv_pos_as_xyz
  1  'x, y, z'
loop_
 _atom_site_type_symbol
 _atom_site_label
 _atom_site_symmetry_multiplicity
 _atom_site_fract_x
 _atom_site_fract_y
 _atom_site_fract_z
 _atom_site_occupancy
  Li  Li0  1  0.24913680  -0.00017058  0.50021490  1
  Li  Li1  1  0.75080033  0.49982699  -0.00030004  1
  Li  Li2  1  0.75086195  0.00017930  0.49977195  1
  Li  Li3  1  0.24919596  0.50016467  0.00029489  1
  Br  Br4  1  0.24994206  0.00009940  0.00036296  1
  Br  Br5  1  0.75031253  0.50002584  0.49989427  1
  Br  Br6  1  0.75005777  -0.00002700  -0.00035887  1
  Br  Br7  1  0.24969259  0.49990139  0.50011995  1
