# generated using pymatgen
data_LiBr
_symmetry_space_group_name_H-M   'P 1'
_cell_length_a   12.03711314
_cell_length_b   12.03731200
_cell_length_c   12.03709246
_cell_angle_alpha   90.00174541
_cell_angle_beta   89.99607711
_cell_angle_gamma   89.99942628
_symmetry_Int_Tables_number   1
_chemical_formula_structural   LiBr
_chemical_formula_sum   'Li24 Br24'
_cell_volume   1744.10832491
_cell_formula_units_Z   24
loop_
 _symmetry_equiv_pos_site_id
 _symmetry_equiv_pos_as_xyz
  1  'x, y, z'
loop_
 _atom_site_type_symbol
 _atom_site_label
 _atom_site_symmetry_multiplicity
 _atom_site_fract_x
 _atom_site_fract_y
 _atom_site_fract_z
 _atom_site_occupancy
  Li  Li0  1  0.23343168  0.88533077  0.41838737  1
  Li  Li1  1  0.23342689  0.11467574  0.58160964  1
  Li  Li2  1  0.08161013  0.26656795  0.38533166  1
  Li  Li3  1  0.41839236  0.76657284  0.11467343  1
  Li  Li4  1  0.88532229  0.58160702  0.76657725  1
  Li  Li5  1  0.41838621  0.23343047  0.88532714  1
  Li  Li6  1  0.58161506  0.23343347  0.11466926  1
  Li  Li7  1  0.58161039  0.76656702  0.88533234  1
  Li  Li8  1  0.11466718  0.41838560  0.76656632  1
  Li  Li9  1  0.88533333  0.41838387  0.23343667  1
  Li  Li10  1  0.11467632  0.58160996  0.23342518  1
  Li  Li11  1  0.76656829  0.88533312  0.58161525  1
  Li  Li12  1  0.76657050  0.11467131  0.41839025  1
  Li  Li13  1  -0.08161155  0.73342760  0.38532578  1
  Li  Li14  1  0.08161563  0.73343132  0.61467079  1
  Li  Li15  1  -0.08160666  0.26657500  0.61467536  1
  Li  Li16  1  0.38532479  0.08161041  0.26657338  1
  Li  Li17  1  0.61466428  -0.08161760  0.26656232  1
  Li  Li18  1  0.38533171  -0.08161603  0.73343600  1
  Li  Li19  1  0.61467746  0.08160928  0.73342448  1
  Li  Li20  1  0.26656900  0.38533324  0.08161157  1
  Li  Li21  1  0.26657028  0.61467063  -0.08161065  1
  Li  Li22  1  0.73343363  0.38533318  -0.08161495  1
  Li  Li23  1  0.73342713  0.61467382  0.08160743  1
  Br  Br24  1  0.87062256  0.70296845  0.59254845  1
  Br  Br25  1  0.87062582  0.29704506  0.40742651  1
  Br  Br26  1  0.90744868  0.62938435  0.20297188  1
  Br  Br27  1  0.59255863  0.12938008  0.29703612  1
  Br  Br28  1  0.70295518  0.40742827  0.12937329  1
  Br  Br29  1  0.59256526  0.87062927  0.70295757  1
  Br  Br30  1  0.40744505  0.87062277  0.29703160  1
  Br  Br31  1  0.40744449  0.12938196  0.70296743  1
  Br  Br32  1  0.29702658  0.59254997  0.12938330  1
  Br  Br33  1  0.70297186  0.59255437  0.87061751  1
  Br  Br34  1  0.29704000  0.40743828  0.87062644  1
  Br  Br35  1  0.12937361  0.70296535  0.40744757  1
  Br  Br36  1  0.12937772  0.29703483  0.59255971  1
  Br  Br37  1  0.09255638  0.37062455  0.20296555  1
  Br  Br38  1  0.90743796  0.37062471  0.79703544  1
  Br  Br39  1  0.09255956  0.62938076  0.79703570  1
  Br  Br40  1  0.20295640  0.90743178  0.62937302  1
  Br  Br41  1  0.79702228  0.09254237  0.62938455  1
  Br  Br42  1  0.20296554  0.09256130  0.37062121  1
  Br  Br43  1  0.79704243  0.90743688  0.37062803  1
  Br  Br44  1  0.62937524  0.20296532  0.90744888  1
  Br  Br45  1  0.62937374  0.79704293  0.09257090  1
  Br  Br46  1  0.37062514  0.20296456  0.09255492  1
  Br  Br47  1  0.37062354  0.79704186  0.90743111  1
