# generated using pymatgen
data_LiBr
_symmetry_space_group_name_H-M   'P 1'
_cell_length_a   6.98586661
_cell_length_b   6.98587485
_cell_length_c   3.96284589
_cell_angle_alpha   89.99954496
_cell_angle_beta   90.00048128
_cell_angle_gamma   90.00018685
_symmetry_Int_Tables_number   1
_chemical_formula_structural   LiBr
_chemical_formula_sum   'Li4 Br4'
_cell_volume   193.39634983
_cell_formula_units_Z   4
loop_
 _symmetry_equiv_pos_site_id
 _symmetry_equiv_pos_as_xyz
  1  'x, y, z'
loop_
 _atom_site_type_symbol
 _atom_site_label
 _atom_site_symmetry_multiplicity
 _atom_site_fract_x
 _atom_site_fract_y
 _atom_site_fract_z
 _atom_site_occupancy
  Li  Li0  1  0.16339528  0.66365168  0.78898176  1
  Li  Li1  1  0.66365195  0.83660269  0.03898019  1
  Li  Li2  1  0.83660087  0.33634482  0.28898616  1
  Li  Li3  1  0.33634892  0.16339607  0.53898279  1
  Br  Br4  1  0.17314054  0.32693029  0.03891748  1
  Br  Br5  1  0.32692960  0.82686060  0.28891956  1
  Br  Br6  1  0.82686046  0.67307297  0.53891938  1
  Br  Br7  1  0.67307237  0.17314088  0.78892148  1
