# generated using pymatgen
data_LiI
_symmetry_space_group_name_H-M   'P 1'
_cell_length_a   9.16803966
_cell_length_b   9.20361715
_cell_length_c   7.00400822
_cell_angle_alpha   89.99998374
_cell_angle_beta   89.99983638
_cell_angle_gamma   90.00143756
_symmetry_Int_Tables_number   1
_chemical_formula_structural   LiI
_chemical_formula_sum   'Li8 I8'
_cell_volume   590.99209974
_cell_formula_units_Z   8
loop_
 _symmetry_equiv_pos_site_id
 _symmetry_equiv_pos_as_xyz
  1  'x, y, z'
loop_
 _atom_site_type_symbol
 _atom_site_label
 _atom_site_symmetry_multiplicity
 _atom_site_fract_x
 _atom_site_fract_y
 _atom_site_fract_z
 _atom_site_occupancy
  Li  Li0  1  0.63741472  0.86200061  0.50517277  1
  Li  Li1  1  0.13741489  0.63799922  0.50517281  1
  Li  Li2  1  0.36258566  0.86200048  0.00517263  1
  Li  Li3  1  0.36258537  0.13799957  0.50517330  1
  Li  Li4  1  0.63741531  0.13799946  0.00517226  1
  Li  Li5  1  0.86258531  0.36200039  0.50517280  1
  Li  Li6  1  0.86258565  0.63799968  0.00517305  1
  Li  Li7  1  0.13741519  0.36200059  0.00517255  1
  I  I8  1  0.34169929  0.84429634  0.39874759  1
  I  I9  1  0.84169989  0.65570316  0.39874704  1
  I  I10  1  0.65829934  0.84429651  0.89874708  1
  I  I11  1  0.65829989  0.15570398  0.39874743  1
  I  I12  1  0.34170038  0.15570320  0.89874686  1
  I  I13  1  0.15829932  0.34429653  0.39874690  1
  I  I14  1  0.15829990  0.65570402  0.89874779  1
  I  I15  1  0.84169988  0.34429627  0.89874747  1
