# generated using pymatgen
data_LiBr
_symmetry_space_group_name_H-M   'P 1'
_cell_length_a   6.67378677
_cell_length_b   6.73184557
_cell_length_c   11.50544720
_cell_angle_alpha   73.86890821
_cell_angle_beta   124.10431481
_cell_angle_gamma   119.67594936
_symmetry_Int_Tables_number   1
_chemical_formula_structural   LiBr
_chemical_formula_sum   'Li9 Br9'
_cell_volume   371.86842305
_cell_formula_units_Z   9
loop_
 _symmetry_equiv_pos_site_id
 _symmetry_equiv_pos_as_xyz
  1  'x, y, z'
loop_
 _atom_site_type_symbol
 _atom_site_label
 _atom_site_symmetry_multiplicity
 _atom_site_fract_x
 _atom_site_fract_y
 _atom_site_fract_z
 _atom_site_occupancy
  Li  Li0  1  -0.08277276  0.33334707  0.65410270  1
  Li  Li1  1  -0.08435261  0.33337659  0.31952326  1
  Li  Li2  1  0.25035829  -0.00005542  0.32076385  1
  Li  Li3  1  0.24881559  -0.00009712  -0.01383700  1
  Li  Li4  1  0.58348143  0.66635658  -0.01247871  1
  Li  Li5  1  -0.08315469  0.33336238  -0.01237557  1
  Li  Li6  1  0.58208450  0.66655606  0.65286966  1
  Li  Li7  1  0.58382353  0.66702748  0.32094326  1
  Li  Li8  1  0.25012693  0.00019881  0.65430122  1
  Br  Br9  1  0.74964775  -0.00034887  0.15371998  1
  Br  Br10  1  0.41705992  0.33357849  0.82054840  1
  Br  Br11  1  0.08300199  0.66633096  0.82042169  1
  Br  Br12  1  0.75044911  0.00029508  0.48732673  1
  Br  Br13  1  0.41642251  0.33308887  0.48701324  1
  Br  Br14  1  0.08376701  0.66687484  0.48739468  1
  Br  Br15  1  0.08375685  0.66671741  0.15402882  1
  Br  Br16  1  0.75040669  0.00002594  0.82074373  1
  Br  Br17  1  0.41707795  0.33336486  0.15397916  1
