# generated using pymatgen
data_LiBr
_symmetry_space_group_name_H-M   'P 1'
_cell_length_a   3.89547410
_cell_length_b   7.79493194
_cell_length_c   5.50197297
_cell_angle_alpha   90.00000061
_cell_angle_beta   90.00002707
_cell_angle_gamma   90.00002057
_symmetry_Int_Tables_number   1
_chemical_formula_structural   LiBr
_chemical_formula_sum   'Li4 Br4'
_cell_volume   167.06716423
_cell_formula_units_Z   4
loop_
 _symmetry_equiv_pos_site_id
 _symmetry_equiv_pos_as_xyz
  1  'x, y, z'
loop_
 _atom_site_type_symbol
 _atom_site_label
 _atom_site_symmetry_multiplicity
 _atom_site_fract_x
 _atom_site_fract_y
 _atom_site_fract_z
 _atom_site_occupancy
  Li  Li0  1  -0.00019257  0.12507792  0.25123287  1
  Li  Li1  1  0.00020854  0.62507144  0.24876829  1
  Li  Li2  1  0.50009534  0.87489458  0.75123331  1
  Li  Li3  1  0.49990411  0.37489559  0.74876790  1
  Br  Br4  1  -0.00031428  0.62493502  0.74975804  1
  Br  Br5  1  0.00030573  0.12493683  0.75024029  1
  Br  Br6  1  0.50043486  0.37509377  0.24975798  1
  Br  Br7  1  0.49955828  0.87509485  0.25024131  1
