# generated using pymatgen
data_LiBr
_symmetry_space_group_name_H-M   'P 1'
_cell_length_a   4.17675691
_cell_length_b   4.17676335
_cell_length_c   10.17299304
_cell_angle_alpha   90.00084385
_cell_angle_beta   90.00007748
_cell_angle_gamma   120.00192813
_symmetry_Int_Tables_number   1
_chemical_formula_structural   LiBr
_chemical_formula_sum   'Li3 Br3'
_cell_volume   153.69155695
_cell_formula_units_Z   3
loop_
 _symmetry_equiv_pos_site_id
 _symmetry_equiv_pos_as_xyz
  1  'x, y, z'
loop_
 _atom_site_type_symbol
 _atom_site_label
 _atom_site_symmetry_multiplicity
 _atom_site_fract_x
 _atom_site_fract_y
 _atom_site_fract_z
 _atom_site_occupancy
  Li  Li0  1  0.32971010  0.32495176  0.59949765  1
  Li  Li1  1  0.67504688  0.00474258  0.93284503  1
  Li  Li2  1  0.99524518  0.67030264  0.26616533  1
  Br  Br3  1  -0.00375065  0.65887377  0.51708677  1
  Br  Br4  1  0.34112961  0.33736707  0.85040556  1
  Br  Br5  1  0.66261888  0.00376218  0.18372945  1
