# generated using pymatgen
data_LiBr
_symmetry_space_group_name_H-M   'P 1'
_cell_length_a   3.89466380
_cell_length_b   3.89464600
_cell_length_c   11.02951671
_cell_angle_alpha   89.99994366
_cell_angle_beta   89.99991867
_cell_angle_gamma   90.00007781
_symmetry_Int_Tables_number   1
_chemical_formula_structural   LiBr
_chemical_formula_sum   'Li4 Br4'
_cell_volume   167.29942385
_cell_formula_units_Z   4
loop_
 _symmetry_equiv_pos_site_id
 _symmetry_equiv_pos_as_xyz
  1  'x, y, z'
loop_
 _atom_site_type_symbol
 _atom_site_label
 _atom_site_symmetry_multiplicity
 _atom_site_fract_x
 _atom_site_fract_y
 _atom_site_fract_z
 _atom_site_occupancy
  Li  Li0  1  0.50185869  0.99510243  0.82531722  1
  Li  Li1  1  0.99507640  0.49816375  0.07532057  1
  Li  Li2  1  0.49814058  0.00489859  0.32531881  1
  Li  Li3  1  0.00493025  0.50183305  0.57532047  1
  Br  Br4  1  0.50140051  0.00089577  0.57459297  1
  Br  Br5  1  0.00090152  0.49860418  0.82459258  1
  Br  Br6  1  0.49859660  -0.00089563  0.07459267  1
  Br  Br7  1  -0.00090455  0.50139785  0.32459344  1
