# generated using pymatgen
data_LiBr
_symmetry_space_group_name_H-M   'P 1'
_cell_length_a   7.26388362
_cell_length_b   4.18903118
_cell_length_c   6.73459123
_cell_angle_alpha   90.00000220
_cell_angle_beta   90.00010496
_cell_angle_gamma   89.99999841
_symmetry_Int_Tables_number   1
_chemical_formula_structural   LiBr
_chemical_formula_sum   'Li4 Br4'
_cell_volume   204.92441798
_cell_formula_units_Z   4
loop_
 _symmetry_equiv_pos_site_id
 _symmetry_equiv_pos_as_xyz
  1  'x, y, z'
loop_
 _atom_site_type_symbol
 _atom_site_label
 _atom_site_symmetry_multiplicity
 _atom_site_fract_x
 _atom_site_fract_y
 _atom_site_fract_z
 _atom_site_occupancy
  Li  Li0  1  0.41699380  0.74694862  0.49349135  1
  Li  Li1  1  -0.08300596  0.25305134  0.49349203  1
  Li  Li2  1  0.58300638  0.25305286  -0.00650766  1
  Li  Li3  1  0.08300652  0.74694717  -0.00650832  1
  Br  Br4  1  0.58409243  0.24776273  0.37360241  1
  Br  Br5  1  0.08409234  0.75223723  0.37360220  1
  Br  Br6  1  0.41590728  0.75223864  0.87360203  1
  Br  Br7  1  0.91590721  0.24776140  0.87360225  1
