# generated using pymatgen
data_LiBr
_symmetry_space_group_name_H-M   'P 1'
_cell_length_a   6.45540876
_cell_length_b   6.66656302
_cell_length_c   3.87203589
_cell_angle_alpha   89.99991523
_cell_angle_beta   90.00002338
_cell_angle_gamma   89.99999647
_symmetry_Int_Tables_number   1
_chemical_formula_structural   LiBr
_chemical_formula_sum   'Li4 Br4'
_cell_volume   166.63457190
_cell_formula_units_Z   4
loop_
 _symmetry_equiv_pos_site_id
 _symmetry_equiv_pos_as_xyz
  1  'x, y, z'
loop_
 _atom_site_type_symbol
 _atom_site_label
 _atom_site_symmetry_multiplicity
 _atom_site_fract_x
 _atom_site_fract_y
 _atom_site_fract_z
 _atom_site_occupancy
  Li  Li0  1  0.49704655  0.74859744  0.10149287  1
  Li  Li1  1  0.99704630  0.75140252  0.10149479  1
  Li  Li2  1  0.50295415  0.25140012  0.60148991  1
  Li  Li3  1  0.00295344  0.24859992  0.60148877  1
  Br  Br4  1  0.24997363  0.58299567  0.60101305  1
  Br  Br5  1  0.74997365  0.91700438  0.60101212  1
  Br  Br6  1  0.75002598  0.41700417  0.10101132  1
  Br  Br7  1  0.25002631  0.08299578  0.10101233  1
