# generated using pymatgen
data_LiI
_symmetry_space_group_name_H-M   'P 1'
_cell_length_a   12.57045609
_cell_length_b   12.57045307
_cell_length_c   8.62581036
_cell_angle_alpha   90.02482864
_cell_angle_beta   89.97518808
_cell_angle_gamma   120.02453712
_symmetry_Int_Tables_number   1
_chemical_formula_structural   LiI
_chemical_formula_sum   'Li18 I18'
_cell_volume   1180.11686394
_cell_formula_units_Z   18
loop_
 _symmetry_equiv_pos_site_id
 _symmetry_equiv_pos_as_xyz
  1  'x, y, z'
loop_
 _atom_site_type_symbol
 _atom_site_label
 _atom_site_symmetry_multiplicity
 _atom_site_fract_x
 _atom_site_fract_y
 _atom_site_fract_z
 _atom_site_occupancy
  Li  Li0  1  0.72240839  0.94025657  0.64887927  1
  Li  Li1  1  0.72242502  0.78209270  0.14891167  1
  Li  Li2  1  0.39315493  0.94439839  0.81543797  1
  Li  Li3  1  0.55128645  0.60683011  0.81539496  1
  Li  Li4  1  0.72615836  0.11539462  0.98216201  1
  Li  Li5  1  0.05969521  0.78215023  0.64883855  1
  Li  Li6  1  0.55131740  0.94436892  0.31547368  1
  Li  Li7  1  0.39316735  0.44871437  0.31539578  1
  Li  Li8  1  0.21790679  0.27757417  0.64891162  1
  Li  Li9  1  0.21784949  0.94030558  0.14883890  1
  Li  Li10  1  0.05560066  0.60684436  0.31543747  1
  Li  Li11  1  0.05562943  0.44868132  0.81547442  1
  Li  Li12  1  0.88468269  0.61077677  0.98222674  1
  Li  Li13  1  0.88460408  0.27384154  0.48216118  1
  Li  Li14  1  0.05974303  0.27759304  0.14887988  1
  Li  Li15  1  0.72617779  0.61078193  0.48219472  1
  Li  Li16  1  0.38921648  0.27382215  0.98219654  1
  Li  Li17  1  0.38922541  0.11531827  0.48222687  1
  I  I18  1  0.85705304  0.31686579  0.17537014  1
  I  I19  1  0.85696427  0.54020373  0.67531923  1
  I  I20  1  0.01643373  0.80956233  0.34205113  1
  I  I21  1  0.79314840  0.98356907  0.34197798  1
  I  I22  1  0.34982792  0.87353613  0.50862032  1
  I  I23  1  0.68311655  0.54015102  0.17527833  1
  I  I24  1  0.79311943  0.80965470  0.84202470  1
  I  I25  1  0.01643158  0.20685200  0.84197847  1
  I  I26  1  0.45979681  0.14303584  0.17531897  1
  I  I27  1  0.45984916  0.31688403  0.67527872  1
  I  I28  1  0.19043824  0.98356654  0.84205093  1
  I  I29  1  0.19034643  0.20688207  0.34202339  1
  I  I30  1  0.12642374  0.47636138  0.50866873  1
  I  I31  1  0.12646433  0.65017208  0.00862066  1
  I  I32  1  0.68313438  0.14294676  0.67537135  1
  I  I33  1  0.34984508  0.47628077  0.00871753  1
  I  I34  1  0.52371999  0.65015588  0.50871846  1
  I  I35  1  0.52363794  0.87357483  0.00866906  1
