# generated using pymatgen
data_NaI
_symmetry_space_group_name_H-M   'P 1'
_cell_length_a   6.52747238
_cell_length_b   6.53447978
_cell_length_c   6.53161888
_cell_angle_alpha   89.99997318
_cell_angle_beta   89.99939899
_cell_angle_gamma   89.99998876
_symmetry_Int_Tables_number   1
_chemical_formula_structural   NaI
_chemical_formula_sum   'Na4 I4'
_cell_volume   278.59729605
_cell_formula_units_Z   4
loop_
 _symmetry_equiv_pos_site_id
 _symmetry_equiv_pos_as_xyz
  1  'x, y, z'
loop_
 _atom_site_type_symbol
 _atom_site_label
 _atom_site_symmetry_multiplicity
 _atom_site_fract_x
 _atom_site_fract_y
 _atom_site_fract_z
 _atom_site_occupancy
  Na  Na0  1  0.49507306  0.24878474  0.38515398  1
  Na  Na1  1  -0.00492690  0.75121542  0.38515457  1
  Na  Na2  1  0.50493281  0.75121867  0.88518283  1
  Na  Na3  1  0.00493321  0.24878129  0.88518280  1
  I  I4  1  0.00198069  0.74941679  0.88508336  1
  I  I5  1  0.50198116  0.25058305  0.88508333  1
  I  I6  1  -0.00198691  0.25058866  0.38509316  1
  I  I7  1  0.49801287  0.74941138  0.38509289  1
