# generated using pymatgen
data_LiBr
_symmetry_space_group_name_H-M   'P 1'
_cell_length_a   11.53492258
_cell_length_b   11.53517088
_cell_length_c   7.92899466
_cell_angle_alpha   89.98577213
_cell_angle_beta   90.01366556
_cell_angle_gamma   120.01205171
_symmetry_Int_Tables_number   1
_chemical_formula_structural   LiBr
_chemical_formula_sum   'Li18 Br18'
_cell_volume   913.55500779
_cell_formula_units_Z   18
loop_
 _symmetry_equiv_pos_site_id
 _symmetry_equiv_pos_as_xyz
  1  'x, y, z'
loop_
 _atom_site_type_symbol
 _atom_site_label
 _atom_site_symmetry_multiplicity
 _atom_site_fract_x
 _atom_site_fract_y
 _atom_site_fract_z
 _atom_site_occupancy
  Li  Li0  1  0.86999869  0.74018657  0.62922248  1
  Li  Li1  1  0.86996655  0.12980218  0.12924415  1
  Li  Li2  1  0.59314834  0.79666427  0.79588844  1
  Li  Li3  1  0.20349355  0.40681990  0.79594437  1
  Li  Li4  1  0.92651142  0.46317226  -0.03738784  1
  Li  Li5  1  0.25984297  0.12984180  0.62926771  1
  Li  Li6  1  0.20353256  0.79670299  0.29590192  1
  Li  Li7  1  0.59317675  0.79650511  0.29594810  1
  Li  Li8  1  0.87019360  0.13003257  0.62923773  1
  Li  Li9  1  0.87015189  0.74015574  0.12927361  1
  Li  Li10  1  0.20334521  0.40685395  0.29588908  1
  Li  Li11  1  0.20330365  0.79647406  0.79589594  1
  Li  Li12  1  0.53686057  0.46336754  -0.03744016  1
  Li  Li13  1  0.53682298  0.07348918  0.46260398  1
  Li  Li14  1  0.25981913  0.13000415  0.12921395  1
  Li  Li15  1  0.92647958  0.46333264  0.46255096  1
  Li  Li16  1  0.53667164  0.07351653  -0.03745734  1
  Li  Li17  1  0.53663263  0.46314180  0.46256694  1
  Br  Br18  1  0.45393876  0.90779732  0.22318703  1
  Br  Br19  1  0.45392962  0.54614645  0.72327848  1
  Br  Br20  1  0.42553015  0.21272073  0.38984981  1
  Br  Br21  1  0.78729400  0.57453274  0.38998187  1
  Br  Br22  1  0.75880535  0.87938192  0.55664956  1
  Br  Br23  1  0.09214195  0.54605425  0.22331400  1
  Br  Br24  1  0.78718711  0.21274067  0.88995403  1
  Br  Br25  1  0.42546556  0.21271166  0.88997815  1
  Br  Br26  1  0.45385038  0.54606687  0.22328605  1
  Br  Br27  1  0.45394402  0.90786196  0.72331546  1
  Br  Br28  1  0.78727289  0.57445895  0.88985725  1
  Br  Br29  1  0.78727018  0.21282062  0.38995763  1
  Br  Br30  1  0.12052014  0.87939619  0.55661679  1
  Br  Br31  1  0.12061962  0.24118945  0.05665052  1
  Br  Br32  1  0.09220195  0.54605999  0.72318770  1
  Br  Br33  1  0.75887303  0.87938807  0.05653013  1
  Br  Br34  1  0.12060607  0.24112961  0.55651961  1
  Br  Br35  1  0.12059752  0.87947933  0.05661902  1
