# generated using pymatgen
data_LiBr
_symmetry_space_group_name_H-M   'P 1'
_cell_length_a   11.53774469
_cell_length_b   11.53777670
_cell_length_c   7.92292968
_cell_angle_alpha   89.99725650
_cell_angle_beta   90.00255740
_cell_angle_gamma   120.00459094
_symmetry_Int_Tables_number   1
_chemical_formula_structural   LiBr
_chemical_formula_sum   'Li18 Br18'
_cell_volume   913.35454330
_cell_formula_units_Z   18
loop_
 _symmetry_equiv_pos_site_id
 _symmetry_equiv_pos_as_xyz
  1  'x, y, z'
loop_
 _atom_site_type_symbol
 _atom_site_label
 _atom_site_symmetry_multiplicity
 _atom_site_fract_x
 _atom_site_fract_y
 _atom_site_fract_z
 _atom_site_occupancy
  Li  Li0  1  0.40706855  0.20290045  0.21759189  1
  Li  Li1  1  0.40703387  0.20416673  0.71759481  1
  Li  Li2  1  0.13043737  0.25959778  0.38425589  1
  Li  Li3  1  0.12915924  0.86953808  0.38419992  1
  Li  Li4  1  0.46379843  0.53750770  0.55087096  1
  Li  Li5  1  0.79712950  0.20417624  0.21753360  1
  Li  Li6  1  0.12916151  0.25962742  0.88425658  1
  Li  Li7  1  0.13046261  0.87083802  0.88419940  1
  Li  Li8  1  0.79583205  0.59296461  0.21759094  1
  Li  Li9  1  0.79582613  0.20287140  0.71753399  1
  Li  Li10  1  0.74040226  0.86956396  0.88425584  1
  Li  Li11  1  0.74036992  0.87083349  0.38425278  1
  Li  Li12  1  0.46249883  0.92629572  0.55092430  1
  Li  Li13  1  0.46249155  0.53620854  0.05086853  1
  Li  Li14  1  0.79710456  0.59293141  0.71758956  1
  Li  Li15  1  0.46377219  0.92627011  0.05092573  1
  Li  Li16  1  0.07373628  0.53622738  0.55092219  1
  Li  Li17  1  0.07370234  0.53750189  0.05092425  1
  Br  Br18  1  0.24116831  0.12007280  0.45746154  1
  Br  Br19  1  0.24115458  0.12107546  -0.04252274  1
  Br  Br20  1  0.21326155  0.42549746  0.62412397  1
  Br  Br21  1  0.21225622  0.78675706  0.62412027  1
  Br  Br22  1  0.54657364  0.45440700  0.79079391  1
  Br  Br23  1  0.87990795  0.12107536  0.45745252  1
  Br  Br24  1  0.21225083  0.42550495  0.12413833  1
  Br  Br25  1  0.21324118  0.78774127  0.12412168  1
  Br  Br26  1  0.87892194  0.75884184  0.45747436  1
  Br  Br27  1  0.87892329  0.12009157  -0.04254512  1
  Br  Br28  1  0.57450095  0.78674349  0.12412442  1
  Br  Br29  1  0.57449467  0.78774618  0.62414043  1
  Br  Br30  1  0.54558541  0.09217374  0.79080639  1
  Br  Br31  1  0.54559022  0.45342992  0.29079095  1
  Br  Br32  1  0.87992594  0.75883072  -0.04254337  1
  Br  Br33  1  0.54659303  0.09216843  0.29079250  1
  Br  Br34  1  0.90783754  0.45340777  0.79079386  1
  Br  Br35  1  0.90782553  0.45441405  0.29081034  1
