# generated using pymatgen
data_LiI
_symmetry_space_group_name_H-M   'P 1'
_cell_length_a   14.40172256
_cell_length_b   4.71551866
_cell_length_c   9.45213547
_cell_angle_alpha   90.00006323
_cell_angle_beta   90.00050886
_cell_angle_gamma   89.99968933
_symmetry_Int_Tables_number   1
_chemical_formula_structural   LiI
_chemical_formula_sum   'Li8 I8'
_cell_volume   641.90956195
_cell_formula_units_Z   8
loop_
 _symmetry_equiv_pos_site_id
 _symmetry_equiv_pos_as_xyz
  1  'x, y, z'
loop_
 _atom_site_type_symbol
 _atom_site_label
 _atom_site_symmetry_multiplicity
 _atom_site_fract_x
 _atom_site_fract_y
 _atom_site_fract_z
 _atom_site_occupancy
  Li  Li0  1  0.00007238  0.24968284  0.12466268  1
  Li  Li1  1  0.00007827  0.25031171  0.62466324  1
  Li  Li2  1  0.50007389  0.25031358  0.87533630  1
  Li  Li3  1  0.49992370  0.75031521  0.62466497  1
  Li  Li4  1  0.99992384  0.74968242  0.37533537  1
  Li  Li5  1  0.49992487  0.74968994  0.12466293  1
  Li  Li6  1  0.50007889  0.24968783  0.37533633  1
  Li  Li7  1  0.99992513  0.75031083  0.87533809  1
  I  I8  1  0.60191911  0.25010955  0.12556987  1
  I  I9  1  0.60191909  0.24989451  0.62557456  1
  I  I10  1  0.10191803  0.24989057  0.87443412  1
  I  I11  1  0.89808242  0.74989045  0.62556875  1
  I  I12  1  0.39808239  0.75011085  0.37442808  1
  I  I13  1  0.89807960  0.75010688  0.12556832  1
  I  I14  1  0.10191861  0.25010677  0.37442750  1
  I  I15  1  0.39807977  0.74989605  0.87442889  1
