# generated using pymatgen
data_NaI
_symmetry_space_group_name_H-M   'P 1'
_cell_length_a   9.11390977
_cell_length_b   7.87784722
_cell_length_c   7.75354206
_cell_angle_alpha   89.99998972
_cell_angle_beta   90.00000702
_cell_angle_gamma   90.00000004
_symmetry_Int_Tables_number   1
_chemical_formula_structural   NaI
_chemical_formula_sum   'Na8 I8'
_cell_volume   556.68872540
_cell_formula_units_Z   8
loop_
 _symmetry_equiv_pos_site_id
 _symmetry_equiv_pos_as_xyz
  1  'x, y, z'
loop_
 _atom_site_type_symbol
 _atom_site_label
 _atom_site_symmetry_multiplicity
 _atom_site_fract_x
 _atom_site_fract_y
 _atom_site_fract_z
 _atom_site_occupancy
  Na  Na0  1  0.87641974  0.25068851  0.99911881  1
  Na  Na1  1  0.87642002  0.24931231  0.49913148  1
  Na  Na2  1  0.37641972  0.24931279  0.00087830  1
  Na  Na3  1  0.62357999  0.74931357  0.49913448  1
  Na  Na4  1  0.12357997  0.75068772  0.50086847  1
  Na  Na5  1  0.62358032  0.75068727  0.99912181  1
  Na  Na6  1  0.37642000  0.25068641  0.50086563  1
  Na  Na7  1  0.12358032  0.74931147  0.00088110  1
  I  I8  1  0.12590024  0.08404872  0.75069489  1
  I  I9  1  0.12589876  0.41595176  0.25069541  1
  I  I10  1  0.62590017  0.41595132  0.24930510  1
  I  I11  1  0.37410128  0.91595174  0.25069533  1
  I  I12  1  0.87410126  0.58404814  0.74930457  1
  I  I13  1  0.37409979  0.58404875  0.75069487  1
  I  I14  1  0.62589871  0.08404820  0.74930468  1
  I  I15  1  0.87409972  0.91595131  0.24930506  1
