# generated using pymatgen
data_LiBr
_symmetry_space_group_name_H-M   'P 1'
_cell_length_a   10.27592892
_cell_length_b   10.27805405
_cell_length_c   7.99204194
_cell_angle_alpha   89.99957242
_cell_angle_beta   90.00001823
_cell_angle_gamma   89.99983142
_symmetry_Int_Tables_number   1
_chemical_formula_structural   LiBr
_chemical_formula_sum   'Li16 Br16'
_cell_volume   844.09191964
_cell_formula_units_Z   16
loop_
 _symmetry_equiv_pos_site_id
 _symmetry_equiv_pos_as_xyz
  1  'x, y, z'
loop_
 _atom_site_type_symbol
 _atom_site_label
 _atom_site_symmetry_multiplicity
 _atom_site_fract_x
 _atom_site_fract_y
 _atom_site_fract_z
 _atom_site_occupancy
  Li  Li0  1  0.00029501  0.33332273  0.74201685  1
  Li  Li1  1  0.83323622  0.00038504  -0.00983707  1
  Li  Li2  1  -0.00029709  0.33332340  0.24201633  1
  Li  Li3  1  -0.00029362  0.66667528  0.74201354  1
  Li  Li4  1  0.16676423  -0.00038428  -0.00983998  1
  Li  Li5  1  0.66676617  0.50038393  -0.00983792  1
  Li  Li6  1  0.33323312  0.49961789  -0.00983721  1
  Li  Li7  1  0.16676511  0.00038730  0.49016140  1
  Li  Li8  1  0.83323603  -0.00038679  0.49016243  1
  Li  Li9  1  0.49970539  0.16667487  0.24201372  1
  Li  Li10  1  0.66676399  0.49961562  0.49016335  1
  Li  Li11  1  0.50029454  0.83332264  0.24201709  1
  Li  Li12  1  0.33323537  0.50038425  0.49016749  1
  Li  Li13  1  0.49970147  0.83332336  0.74201610  1
  Li  Li14  1  0.50029729  0.16667695  0.74201233  1
  Li  Li15  1  0.00029672  0.66667709  0.24201289  1
  Br  Br16  1  0.49959651  0.31431578  0.49200445  1
  Br  Br17  1  0.81414481  0.49965494  0.74070671  1
  Br  Br18  1  0.50040972  0.31431598  -0.00799429  1
  Br  Br19  1  0.50040207  0.68568579  0.49200711  1
  Br  Br20  1  0.18585567  0.50034369  0.74071101  1
  Br  Br21  1  0.68585566  -0.00034918  0.74070574  1
  Br  Br22  1  0.31414499  0.00034944  0.74070695  1
  Br  Br23  1  0.18585602  0.49965127  0.24071045  1
  Br  Br24  1  0.81414463  0.50034866  0.24070887  1
  Br  Br25  1  0.00040363  0.18568406  -0.00799334  1
  Br  Br26  1  0.68585517  0.00034404  0.24070796  1
  Br  Br27  1  -0.00040448  0.81431613  -0.00799551  1
  Br  Br28  1  0.31414445  -0.00034553  0.24070559  1
  Br  Br29  1  0.00040881  0.81431629  0.49200514  1
  Br  Br30  1  -0.00040865  0.18568507  0.49200644  1
  Br  Br31  1  0.49959105  0.68568429  -0.00799279  1
