# generated using pymatgen
data_KI
_symmetry_space_group_name_H-M   'P 1'
_cell_length_a   7.19655074
_cell_length_b   5.08188033
_cell_length_c   5.08895235
_cell_angle_alpha   89.99994164
_cell_angle_beta   90.00140471
_cell_angle_gamma   89.99999891
_symmetry_Int_Tables_number   1
_chemical_formula_structural   KI
_chemical_formula_sum   'K2 I2'
_cell_volume   186.11321456
_cell_formula_units_Z   2
loop_
 _symmetry_equiv_pos_site_id
 _symmetry_equiv_pos_as_xyz
  1  'x, y, z'
loop_
 _atom_site_type_symbol
 _atom_site_label
 _atom_site_symmetry_multiplicity
 _atom_site_fract_x
 _atom_site_fract_y
 _atom_site_fract_z
 _atom_site_occupancy
  K  K0  1  0.74990759  0.84802759  0.75110354  1
  K  K1  1  0.25009242  0.34802758  0.24889652  1
  I  I2  1  0.24954776  0.84802608  0.74797338  1
  I  I3  1  0.75045223  0.34802610  0.25202656  1
