# generated using pymatgen
data_NaI
_symmetry_space_group_name_H-M   'P 1'
_cell_length_a   6.53414326
_cell_length_b   6.53417136
_cell_length_c   13.03918020
_cell_angle_alpha   90.00105010
_cell_angle_beta   89.99962286
_cell_angle_gamma   89.99955104
_symmetry_Int_Tables_number   1
_chemical_formula_structural   NaI
_chemical_formula_sum   'Na8 I8'
_cell_volume   556.71056001
_cell_formula_units_Z   8
loop_
 _symmetry_equiv_pos_site_id
 _symmetry_equiv_pos_as_xyz
  1  'x, y, z'
loop_
 _atom_site_type_symbol
 _atom_site_label
 _atom_site_symmetry_multiplicity
 _atom_site_fract_x
 _atom_site_fract_y
 _atom_site_fract_z
 _atom_site_occupancy
  Na  Na0  1  0.74918422  0.24841454  0.87489774  1
  Na  Na1  1  0.74840481  -0.24919377  0.62510240  1
  Na  Na2  1  0.25081796  0.75160333  0.87489343  1
  Na  Na3  1  0.75159380  0.74916956  0.12510623  1
  Na  Na4  1  0.24840463  0.25080652  0.12510245  1
  Na  Na5  1  -0.24918222  0.25160321  0.37489347  1
  Na  Na6  1  0.25159391  0.24916952  0.62510624  1
  Na  Na7  1  0.24918426  0.74841463  0.37489782  1
  I  I8  1  0.74979363  0.24935619  0.12506796  1
  I  I9  1  0.74936608  0.75021125  0.37494214  1
  I  I10  1  0.25019892  0.75063278  0.12506357  1
  I  I11  1  0.75064069  0.74980615  0.87492643  1
  I  I12  1  0.24936614  0.25021126  0.87494213  1
  I  I13  1  0.75019894  0.25063253  0.62506350  1
  I  I14  1  0.25064061  0.24980625  0.37492653  1
  I  I15  1  0.24979362  0.74935604  0.62506796  1
