# generated using pymatgen
data_LiI
_symmetry_space_group_name_H-M   'P 1'
_cell_length_a   8.51261017
_cell_length_b   8.51283710
_cell_length_c   6.00386374
_cell_angle_alpha   89.99988926
_cell_angle_beta   89.99957133
_cell_angle_gamma   90.00003783
_symmetry_Int_Tables_number   1
_chemical_formula_structural   LiI
_chemical_formula_sum   'Li8 I8'
_cell_volume   435.07877380
_cell_formula_units_Z   8
loop_
 _symmetry_equiv_pos_site_id
 _symmetry_equiv_pos_as_xyz
  1  'x, y, z'
loop_
 _atom_site_type_symbol
 _atom_site_label
 _atom_site_symmetry_multiplicity
 _atom_site_fract_x
 _atom_site_fract_y
 _atom_site_fract_z
 _atom_site_occupancy
  Li  Li0  1  0.75090088  0.50031730  0.28743278  1
  Li  Li1  1  -0.00032044  0.74910203  0.78743247  1
  Li  Li2  1  0.74909808  0.00031962  0.28743092  1
  Li  Li3  1  0.00032187  0.25090088  0.78743046  1
  Li  Li4  1  0.25089959  -0.00032216  0.28743283  1
  Li  Li5  1  0.24909858  0.49968018  0.28743063  1
  Li  Li6  1  0.50031975  0.24910228  0.78743246  1
  Li  Li7  1  0.49968208  0.75090112  0.78743100  1
  I  I8  1  0.50071709  0.24987546  0.28736088  1
  I  I9  1  0.25012428  -0.00071762  0.78736063  1
  I  I10  1  -0.00071812  0.74987548  0.28736090  1
  I  I11  1  0.74987578  0.00071792  0.78736014  1
  I  I12  1  0.00071827  0.25012377  0.28736002  1
  I  I13  1  0.49928187  0.75012324  0.28736008  1
  I  I14  1  0.24987563  0.49928304  0.78736017  1
  I  I15  1  0.75012481  0.50071748  0.78736053  1
