# generated using pymatgen
data_LiBr
_symmetry_space_group_name_H-M   'P 1'
_cell_length_a   3.89467479
_cell_length_b   3.89532356
_cell_length_c   9.53333624
_cell_angle_alpha   89.99649642
_cell_angle_beta   90.02602399
_cell_angle_gamma   120.00722890
_symmetry_Int_Tables_number   1
_chemical_formula_structural   LiBr
_chemical_formula_sum   'Li3 Br3'
_cell_volume   125.24447791
_cell_formula_units_Z   3
loop_
 _symmetry_equiv_pos_site_id
 _symmetry_equiv_pos_as_xyz
  1  'x, y, z'
loop_
 _atom_site_type_symbol
 _atom_site_label
 _atom_site_symmetry_multiplicity
 _atom_site_fract_x
 _atom_site_fract_y
 _atom_site_fract_z
 _atom_site_occupancy
  Li  Li0  1  0.33256637  0.33685405  0.22539104  1
  Li  Li1  1  0.66324643  -0.00435038  0.55877858  1
  Li  Li2  1  0.00403705  0.66747757  0.89176538  1
  Br  Br3  1  -0.00229749  0.66633881  0.39183008  1
  Br  Br4  1  0.33370870  0.33125732  0.72505018  1
  Br  Br5  1  0.66873895  0.00242263  0.05835900  1
