# generated using pymatgen
data_LiI
_symmetry_space_group_name_H-M   'P 1'
_cell_length_a   12.97879720
_cell_length_b   12.97876056
_cell_length_c   12.97877884
_cell_angle_alpha   90.00004014
_cell_angle_beta   90.00006016
_cell_angle_gamma   90.00009789
_symmetry_Int_Tables_number   1
_chemical_formula_structural   LiI
_chemical_formula_sum   'Li24 I24'
_cell_volume   2186.25843994
_cell_formula_units_Z   24
loop_
 _symmetry_equiv_pos_site_id
 _symmetry_equiv_pos_as_xyz
  1  'x, y, z'
loop_
 _atom_site_type_symbol
 _atom_site_label
 _atom_site_symmetry_multiplicity
 _atom_site_fract_x
 _atom_site_fract_y
 _atom_site_fract_z
 _atom_site_occupancy
  Li  Li0  1  0.92437949  0.61583963  0.27196552  1
  Li  Li1  1  0.92438039  0.38415977  0.72803354  1
  Li  Li2  1  0.22803365  0.57562042  0.11583822  1
  Li  Li3  1  0.27196749  0.07562077  0.38416149  1
  Li  Li4  1  0.61583818  0.72803289  0.07562024  1
  Li  Li5  1  0.27196715  0.92437841  0.61583865  1
  Li  Li6  1  0.72803118  0.92438033  0.38416027  1
  Li  Li7  1  0.72803219  0.07562070  0.61583961  1
  Li  Li8  1  0.38416298  0.27196858  0.07562062  1
  Li  Li9  1  0.61584044  0.27196725  0.92437983  1
  Li  Li10  1  0.38416084  0.72803070  0.92437983  1
  Li  Li11  1  0.07561957  0.61583877  0.72803317  1
  Li  Li12  1  0.07562029  0.38416158  0.27196658  1
  Li  Li13  1  0.77196762  0.42438042  0.11583836  1
  Li  Li14  1  0.22803389  0.42437884  0.88416167  1
  Li  Li15  1  0.77196634  0.57561962  0.88416080  1
  Li  Li16  1  0.11584005  0.22803268  0.57562122  1
  Li  Li17  1  0.88415852  0.77196670  0.57562036  1
  Li  Li18  1  0.11583666  0.77196762  0.42437901  1
  Li  Li19  1  0.88416300  0.22803325  0.42438048  1
  Li  Li20  1  0.57562125  0.11584123  0.22803358  1
  Li  Li21  1  0.57562075  0.88416001  0.77196781  1
  Li  Li22  1  0.42437886  0.11583776  0.77196824  1
  Li  Li23  1  0.42437921  0.88416194  0.22803188  1
  I  I24  1  0.08943242  0.19143306  0.36387670  1
  I  I25  1  0.08943108  0.80857012  0.63612317  1
  I  I26  1  0.13612337  0.41056646  0.69143033  1
  I  I27  1  0.36387576  0.91056626  0.80856707  1
  I  I28  1  0.19142954  0.63612304  0.91056652  1
  I  I29  1  0.36387743  0.08943534  0.19143256  1
  I  I30  1  0.63612410  0.08943209  0.80856920  1
  I  I31  1  0.63612277  0.91056809  0.19143051  1
  I  I32  1  0.80857188  0.36387516  0.91056762  1
  I  I33  1  0.19143167  0.36387584  0.08943279  1
  I  I34  1  0.80856976  0.63612465  0.08943143  1
  I  I35  1  0.91056840  0.19142874  0.63612421  1
  I  I36  1  0.91056589  0.80856866  0.36387613  1
  I  I37  1  0.86387556  0.58943174  0.69142915  1
  I  I38  1  0.13612203  0.58943458  0.30856904  1
  I  I39  1  0.86387740  0.41056677  0.30857026  1
  I  I40  1  0.69143259  0.13612501  0.41056789  1
  I  I41  1  0.30856591  0.86387576  0.41056660  1
  I  I42  1  0.69142943  0.86387607  0.58943242  1
  I  I43  1  0.30857009  0.13612207  0.58943473  1
  I  I44  1  0.41056739  0.69143135  0.13612378  1
  I  I45  1  0.41056789  0.30857039  0.86387647  1
  I  I46  1  0.58943363  0.69142773  0.86387641  1
  I  I47  1  0.58943403  0.30857112  0.13612403  1
