# generated using pymatgen
data_LiBr
_symmetry_space_group_name_H-M   'P 1'
_cell_length_a   11.02879786
_cell_length_b   11.02858294
_cell_length_c   7.17960899
_cell_angle_alpha   90.00017557
_cell_angle_beta   90.00010248
_cell_angle_gamma   89.99986357
_symmetry_Int_Tables_number   1
_chemical_formula_structural   LiBr
_chemical_formula_sum   'Li16 Br16'
_cell_volume   873.27028603
_cell_formula_units_Z   16
loop_
 _symmetry_equiv_pos_site_id
 _symmetry_equiv_pos_as_xyz
  1  'x, y, z'
loop_
 _atom_site_type_symbol
 _atom_site_label
 _atom_site_symmetry_multiplicity
 _atom_site_fract_x
 _atom_site_fract_y
 _atom_site_fract_z
 _atom_site_occupancy
  Li  Li0  1  0.94554872  0.87442260  0.90782910  1
  Li  Li1  1  0.37445312  0.94560493  0.15697790  1
  Li  Li2  1  0.05445128  0.87442281  0.40782934  1
  Li  Li3  1  0.05445187  0.12557809  0.90783067  1
  Li  Li4  1  0.62554593  0.05439424  0.15697697  1
  Li  Li5  1  0.12554550  0.44560410  0.15697820  1
  Li  Li6  1  0.87445591  0.55439546  0.15697555  1
  Li  Li7  1  0.62554639  0.94560543  0.65697597  1
  Li  Li8  1  0.37445334  0.05439491  0.65697620  1
  Li  Li9  1  0.55445069  0.62558022  0.40783321  1
  Li  Li10  1  0.12554472  0.55439491  0.65697566  1
  Li  Li11  1  0.44554957  0.37441863  0.40783377  1
  Li  Li12  1  0.87445452  0.44560459  0.65697684  1
  Li  Li13  1  0.55445102  0.37442098  0.90783096  1
  Li  Li14  1  0.44554908  0.62557977  0.90783165  1
  Li  Li15  1  0.94554816  0.12557818  0.40783003  1
  Br  Br16  1  0.55541333  0.14920419  0.84419185  1
  Br  Br17  1  0.64918812  0.55533096  0.09485482  1
  Br  Br18  1  0.44458723  0.14920391  0.34419215  1
  Br  Br19  1  0.44458688  0.85079636  0.84419284  1
  Br  Br20  1  0.35081332  0.44466954  0.09485584  1
  Br  Br21  1  0.85081266  0.05533134  0.09485356  1
  Br  Br22  1  0.14918677  0.94466853  0.09485279  1
  Br  Br23  1  0.35081271  0.55533051  0.59485646  1
  Br  Br24  1  0.64918682  0.44466820  0.59485492  1
  Br  Br25  1  0.94458504  0.35079497  0.34419159  1
  Br  Br26  1  0.85081322  0.94466894  0.59485186  1
  Br  Br27  1  0.05541642  0.64920540  0.34418880  1
  Br  Br28  1  0.14918653  0.05533166  0.59485358  1
  Br  Br29  1  0.94458405  0.64920557  0.84418814  1
  Br  Br30  1  0.05541517  0.35079491  0.84419159  1
  Br  Br31  1  0.55541190  0.85079518  0.34419277  1
