# generated using pymatgen
data_LiBr
_symmetry_space_group_name_H-M   'P 1'
_cell_length_a   11.53481842
_cell_length_b   11.53485301
_cell_length_c   7.92373945
_cell_angle_alpha   90.00887376
_cell_angle_beta   89.99070787
_cell_angle_gamma   120.01196146
_symmetry_Int_Tables_number   1
_chemical_formula_structural   LiBr
_chemical_formula_sum   'Li18 Br18'
_cell_volume   912.91696791
_cell_formula_units_Z   18
loop_
 _symmetry_equiv_pos_site_id
 _symmetry_equiv_pos_as_xyz
  1  'x, y, z'
loop_
 _atom_site_type_symbol
 _atom_site_label
 _atom_site_symmetry_multiplicity
 _atom_site_fract_x
 _atom_site_fract_y
 _atom_site_fract_z
 _atom_site_occupancy
  Li  Li0  1  0.25976751  0.13062150  0.16077409  1
  Li  Li1  1  0.26003906  0.12933212  0.66068864  1
  Li  Li2  1  0.20271971  0.40678591  0.32744712  1
  Li  Li3  1  0.20434992  0.79750607  0.32739355  1
  Li  Li4  1  0.53576925  0.46242736  0.49414215  1
  Li  Li5  1  0.86907785  0.12893600  0.16151089  1
  Li  Li6  1  0.20394448  0.40636016  0.82761005  1
  Li  Li7  1  0.20249129  0.79564965  0.82739581  1
  Li  Li8  1  0.87066847  0.73996066  0.16069651  1
  Li  Li9  1  0.87106803  0.13092135  0.66150721  1
  Li  Li10  1  0.59321685  0.79728298  0.82745696  1
  Li  Li11  1  0.59364121  0.79605508  0.32761204  1
  Li  Li12  1  0.53725895  0.07317544  0.49360913  1
  Li  Li13  1  0.53757249  0.46422963  -0.00586293  1
  Li  Li14  1  0.86937891  0.74023507  0.66077640  1
  Li  Li15  1  0.53602318  0.07356866  -0.00624289  1
  Li  Li16  1  0.92643393  0.46397656  0.49375138  1
  Li  Li17  1  0.92682096  0.46273854  -0.00639715  1
  Br  Br18  1  0.12007309  0.87886216  0.58807490  1
  Br  Br19  1  0.11980819  0.24106549  0.08839933  1
  Br  Br20  1  0.45427580  0.54664065  0.75494151  1
  Br  Br21  1  0.09221800  0.54561281  0.75439037  1
  Br  Br22  1  0.78782067  0.57463737  0.92116047  1
  Br  Br23  1  0.12133181  0.24113933  0.58805917  1
  Br  Br24  1  0.09233237  0.54682252  0.25448801  1
  Br  Br25  1  0.45438859  0.90777946  0.25439548  1
  Br  Br26  1  0.75893279  0.88018950  0.58840209  1
  Br  Br27  1  0.75886401  0.87867025  0.08806423  1
  Br  Br28  1  0.45335982  0.54572536  0.25493884  1
  Br  Br29  1  0.45317346  0.90766416  0.75449550  1
  Br  Br30  1  0.42552451  0.21336244  0.92139980  1
  Br  Br31  1  0.42536621  0.21218163  0.42115697  1
  Br  Br32  1  0.12113830  0.87992723  0.08807650  1
  Br  Br33  1  0.78774991  0.21323416  0.42196026  1
  Br  Br34  1  0.78676430  0.21224883  0.92195898  1
  Br  Br35  1  0.78663613  0.57447389  0.42140686  1
