# generated using pymatgen
data_LiBr
_symmetry_space_group_name_H-M   'P 1'
_cell_length_a   5.44440087
_cell_length_b   5.50876943
_cell_length_c   5.54074932
_cell_angle_alpha   89.99943388
_cell_angle_beta   90.00866122
_cell_angle_gamma   90.00097925
_symmetry_Int_Tables_number   1
_chemical_formula_structural   LiBr
_chemical_formula_sum   'Li4 Br4'
_cell_volume   166.17786938
_cell_formula_units_Z   4
loop_
 _symmetry_equiv_pos_site_id
 _symmetry_equiv_pos_as_xyz
  1  'x, y, z'
loop_
 _atom_site_type_symbol
 _atom_site_label
 _atom_site_symmetry_multiplicity
 _atom_site_fract_x
 _atom_site_fract_y
 _atom_site_fract_z
 _atom_site_occupancy
  Li  Li0  1  0.49822400  0.74893500  0.83104660  1
  Li  Li1  1  -0.00177796  0.25106446  0.83104484  1
  Li  Li2  1  0.50177231  0.25106523  0.33101778  1
  Li  Li3  1  0.00177172  0.74893506  0.33102016  1
  Br  Br4  1  0.00011217  0.24973799  0.33376346  1
  Br  Br5  1  0.50011187  0.75026190  0.33377949  1
  Br  Br6  1  -0.00010699  0.75025374  0.83377852  1
  Br  Br7  1  0.49989288  0.24974662  0.83376268  1
