# generated using pymatgen
data_LiI
_symmetry_space_group_name_H-M   'P 1'
_cell_length_a   12.60019572
_cell_length_b   12.60021911
_cell_length_c   7.77955198
_cell_angle_alpha   89.99998040
_cell_angle_beta   90.00013665
_cell_angle_gamma   90.00020968
_symmetry_Int_Tables_number   1
_chemical_formula_structural   LiI
_chemical_formula_sum   'Li16 I16'
_cell_volume   1235.12233561
_cell_formula_units_Z   16
loop_
 _symmetry_equiv_pos_site_id
 _symmetry_equiv_pos_as_xyz
  1  'x, y, z'
loop_
 _atom_site_type_symbol
 _atom_site_label
 _atom_site_symmetry_multiplicity
 _atom_site_fract_x
 _atom_site_fract_y
 _atom_site_fract_z
 _atom_site_occupancy
  Li  Li0  1  0.11247499  0.74400572  0.08719082  1
  Li  Li1  1  0.75600331  0.61247580  0.08719345  1
  Li  Li2  1  0.38751469  0.24400692  0.41279764  1
  Li  Li3  1  0.74399425  -0.11247597  0.91280462  1
  Li  Li4  1  0.11248712  0.25599562  0.58720316  1
  Li  Li5  1  0.25598940  0.11247674  0.91280659  1
  Li  Li6  1  0.38752412  0.75599473  0.91280717  1
  Li  Li7  1  0.61247862  0.24400019  0.91280452  1
  Li  Li8  1  0.24401729  0.61248498  0.58719698  1
  Li  Li9  1  -0.11248783  0.74402655  0.58719293  1
  Li  Li10  1  0.75598582  0.38751217  0.58719594  1
  Li  Li11  1  -0.11247683  0.25599811  0.08719518  1
  Li  Li12  1  0.24401387  0.38752337  0.08719224  1
  Li  Li13  1  0.25598056  -0.11248503  0.41280583  1
  Li  Li14  1  0.61248671  0.75597178  0.41280852  1
  Li  Li15  1  0.74401708  0.11248754  0.41280466  1
  I  I16  1  0.74199917  0.08792076  0.05650526  1
  I  I17  1  0.41208165  0.24198962  0.05650435  1
  I  I18  1  0.75801758  0.58791191  0.44349131  1
  I  I19  1  0.08791933  0.25801110  -0.05650264  1
  I  I20  1  0.74198041  0.91208740  0.55650869  1
  I  I21  1  0.91208062  0.74200235  -0.05651422  1
  I  I22  1  0.75800179  0.41207837  -0.05650462  1
  I  I23  1  0.24199454  0.58791663  -0.05651523  1
  I  I24  1  0.58791541  0.24198570  0.55650383  1
  I  I25  1  0.25800294  0.08791371  0.55650561  1
  I  I26  1  0.41208834  0.75801201  0.55651108  1
  I  I27  1  0.25800392  0.91208500  0.05651349  1
  I  I28  1  0.58791798  0.75799740  0.05651484  1
  I  I29  1  0.91208596  0.25801394  0.44349608  1
  I  I30  1  0.24199774  0.41208696  0.44349237  1
  I  I31  1  0.08790945  0.74198793  0.44348954  1
