# generated using pymatgen
data_KCl4
_symmetry_space_group_name_H-M   'P 1'
_cell_length_a   4.64197096
_cell_length_b   4.85744956
_cell_length_c   13.88634346
_cell_angle_alpha   89.99774792
_cell_angle_beta   147.73396926
_cell_angle_gamma   90.00198312
_symmetry_Int_Tables_number   1
_chemical_formula_structural   KCl4
_chemical_formula_sum   'K1 Cl4'
_cell_volume   167.15477209
_cell_formula_units_Z   1
loop_
 _symmetry_equiv_pos_site_id
 _symmetry_equiv_pos_as_xyz
  1  'x, y, z'
loop_
 _atom_site_type_symbol
 _atom_site_label
 _atom_site_symmetry_multiplicity
 _atom_site_fract_x
 _atom_site_fract_y
 _atom_site_fract_z
 _atom_site_occupancy
  K  K0  1  0.00002339  -0.00000013  0.00001035  1
  Cl  Cl1  1  0.83383049  0.74845405  0.73684428  1
  Cl  Cl2  1  0.16615791  0.25157620  0.26314697  1
  Cl  Cl3  1  0.16615954  0.74842637  0.26315639  1
  Cl  Cl4  1  0.83382914  0.25154363  0.73683503  1
