# generated using pymatgen
data_LiI
_symmetry_space_group_name_H-M   'P 1'
_cell_length_a   7.68250950
_cell_length_b   10.71511827
_cell_length_c   4.04961384
_cell_angle_alpha   89.99997060
_cell_angle_beta   89.99965401
_cell_angle_gamma   89.99995110
_symmetry_Int_Tables_number   1
_chemical_formula_structural   LiI
_chemical_formula_sum   'Li4 I4'
_cell_volume   333.36015361
_cell_formula_units_Z   4
loop_
 _symmetry_equiv_pos_site_id
 _symmetry_equiv_pos_as_xyz
  1  'x, y, z'
loop_
 _atom_site_type_symbol
 _atom_site_label
 _atom_site_symmetry_multiplicity
 _atom_site_fract_x
 _atom_site_fract_y
 _atom_site_fract_z
 _atom_site_occupancy
  Li  Li0  1  0.76371481  0.25557078  0.43368280  1
  Li  Li1  1  0.26371474  0.24442910  0.43368114  1
  Li  Li2  1  0.23628546  0.74442886  0.93369285  1
  Li  Li3  1  0.73628525  0.75557115  0.93369448  1
  I  I4  1  0.51609651  0.19679519  0.93334598  1
  I  I5  1  0.01609692  0.30320482  0.93334571  1
  I  I6  1  0.48390333  0.80320501  0.43335530  1
  I  I7  1  -0.01609701  0.69679509  0.43335558  1
