# generated using pymatgen
data_NaI
_symmetry_space_group_name_H-M   'P 1'
_cell_length_a   7.76142457
_cell_length_b   4.55661052
_cell_length_c   7.89516192
_cell_angle_alpha   90.00042540
_cell_angle_beta   90.00003866
_cell_angle_gamma   90.00011210
_symmetry_Int_Tables_number   1
_chemical_formula_structural   NaI
_chemical_formula_sum   'Na4 I4'
_cell_volume   279.21862940
_cell_formula_units_Z   4
loop_
 _symmetry_equiv_pos_site_id
 _symmetry_equiv_pos_as_xyz
  1  'x, y, z'
loop_
 _atom_site_type_symbol
 _atom_site_label
 _atom_site_symmetry_multiplicity
 _atom_site_fract_x
 _atom_site_fract_y
 _atom_site_fract_z
 _atom_site_occupancy
  Na  Na0  1  0.49916500  0.25047979  0.50002445  1
  Na  Na1  1  0.50083466  0.75048588  0.99997119  1
  Na  Na2  1  0.00083544  0.74951324  0.00002655  1
  Na  Na3  1  -0.00083531  0.24952103  0.49997824  1
  I  I4  1  0.25018526  0.24960910  0.16681397  1
  I  I5  1  0.74981513  0.74960660  0.33318111  1
  I  I6  1  0.24981493  0.75039409  0.66681844  1
  I  I7  1  0.75018488  0.25039027  0.83318603  1
