# generated using pymatgen
data_LiI
_symmetry_space_group_name_H-M   'P 1'
_cell_length_a   4.43997891
_cell_length_b   8.64892969
_cell_length_c   6.70330872
_cell_angle_alpha   89.99999883
_cell_angle_beta   101.06512763
_cell_angle_gamma   89.99998478
_symmetry_Int_Tables_number   1
_chemical_formula_structural   LiI
_chemical_formula_sum   'Li4 I4'
_cell_volume   252.62877892
_cell_formula_units_Z   4
loop_
 _symmetry_equiv_pos_site_id
 _symmetry_equiv_pos_as_xyz
  1  'x, y, z'
loop_
 _atom_site_type_symbol
 _atom_site_label
 _atom_site_symmetry_multiplicity
 _atom_site_fract_x
 _atom_site_fract_y
 _atom_site_fract_z
 _atom_site_occupancy
  Li  Li0  1  0.82427891  0.82695479  0.49779895  1
  Li  Li1  1  0.32428314  0.32695417  0.49779893  1
  Li  Li2  1  0.82428285  0.17304643  -0.00220383  1
  Li  Li3  1  0.32427907  0.67304462  -0.00219892  1
  I  I4  1  0.34708423  0.64392719  0.58787014  1
  I  I5  1  0.84708924  0.14393025  0.58787268  1
  I  I6  1  0.34709101  0.35606919  0.08787336  1
  I  I7  1  0.84708240  0.85607337  0.08786969  1
