# generated using pymatgen
data_LiBr
_symmetry_space_group_name_H-M   'P 1'
_cell_length_a   6.67624537
_cell_length_b   3.85963488
_cell_length_c   6.45812746
_cell_angle_alpha   90.00035515
_cell_angle_beta   90.00032133
_cell_angle_gamma   90.00017137
_symmetry_Int_Tables_number   1
_chemical_formula_structural   LiBr
_chemical_formula_sum   'Li4 Br4'
_cell_volume   166.41218535
_cell_formula_units_Z   4
loop_
 _symmetry_equiv_pos_site_id
 _symmetry_equiv_pos_as_xyz
  1  'x, y, z'
loop_
 _atom_site_type_symbol
 _atom_site_label
 _atom_site_symmetry_multiplicity
 _atom_site_fract_x
 _atom_site_fract_y
 _atom_site_fract_z
 _atom_site_occupancy
  Li  Li0  1  0.25126733  0.24925183  0.09496257  1
  Li  Li1  1  0.75126916  0.75076200  0.09496594  1
  Li  Li2  1  0.74873036  0.75074107  0.59496288  1
  Li  Li3  1  0.24872849  0.24924286  0.59496590  1
  Br  Br4  1  0.58273221  0.25055397  0.34360604  1
  Br  Br5  1  0.08273174  0.74945629  0.34361583  1
  Br  Br6  1  0.41727032  0.74945660  0.84360630  1
  Br  Br7  1  0.91727040  0.25053536  0.84361489  1
