# generated using pymatgen
data_LiI
_symmetry_space_group_name_H-M   'P 1'
_cell_length_a   8.55917186
_cell_length_b   7.12049788
_cell_length_c   7.02571656
_cell_angle_alpha   89.99993824
_cell_angle_beta   90.00012985
_cell_angle_gamma   90.00007268
_symmetry_Int_Tables_number   1
_chemical_formula_structural   LiI
_chemical_formula_sum   'Li8 I8'
_cell_volume   428.18626608
_cell_formula_units_Z   8
loop_
 _symmetry_equiv_pos_site_id
 _symmetry_equiv_pos_as_xyz
  1  'x, y, z'
loop_
 _atom_site_type_symbol
 _atom_site_label
 _atom_site_symmetry_multiplicity
 _atom_site_fract_x
 _atom_site_fract_y
 _atom_site_fract_z
 _atom_site_occupancy
  Li  Li0  1  0.37739885  0.75038130  -0.00081475  1
  Li  Li1  1  0.37739919  0.74961649  0.49919146  1
  Li  Li2  1  0.87739860  0.74962271  0.00081573  1
  Li  Li3  1  0.12259962  0.24962137  0.49918774  1
  Li  Li4  1  0.62260242  0.25038261  0.50081109  1
  Li  Li5  1  0.12260256  0.25037751  -0.00081697  1
  Li  Li6  1  0.87739824  0.75038007  0.50081025  1
  Li  Li7  1  0.62259910  0.24961769  0.00081587  1
  I  I8  1  0.62545861  0.91701133  0.24994066  1
  I  I9  1  0.62545880  0.58298750  0.74994079  1
  I  I10  1  0.12545817  0.58298873  0.75006003  1
  I  I11  1  0.87454138  0.08298788  0.74993923  1
  I  I12  1  0.37454160  0.41701217  0.25005992  1
  I  I13  1  0.87454198  0.41701174  0.24993895  1
  I  I14  1  0.12545908  0.91701249  0.25006041  1
  I  I15  1  0.37454180  0.08298839  0.75005959  1
