# generated using pymatgen
data_LiBr
_symmetry_space_group_name_H-M   'P 1'
_cell_length_a   3.90143390
_cell_length_b   3.89983308
_cell_length_c   10.97728871
_cell_angle_alpha   90.05966057
_cell_angle_beta   89.98332562
_cell_angle_gamma   90.00005038
_symmetry_Int_Tables_number   1
_chemical_formula_structural   LiBr
_chemical_formula_sum   'Li4 Br4'
_cell_volume   167.01870224
_cell_formula_units_Z   4
loop_
 _symmetry_equiv_pos_site_id
 _symmetry_equiv_pos_as_xyz
  1  'x, y, z'
loop_
 _atom_site_type_symbol
 _atom_site_label
 _atom_site_symmetry_multiplicity
 _atom_site_fract_x
 _atom_site_fract_y
 _atom_site_fract_z
 _atom_site_occupancy
  Li  Li0  1  0.00423338  0.50077622  0.85537029  1
  Li  Li1  1  0.50078158  -0.00423719  0.10538561  1
  Li  Li2  1  -0.00423397  0.49921145  0.35538164  1
  Li  Li3  1  0.49922713  0.00422909  0.60536732  1
  Br  Br4  1  -0.00128168  0.49939581  0.10505786  1
  Br  Br5  1  0.49939714  0.00126814  0.35505633  1
  Br  Br6  1  0.00125738  0.50061782  0.60504889  1
  Br  Br7  1  0.50061904  -0.00126134  0.85505021  1
