# generated using pymatgen
data_NaI
_symmetry_space_group_name_H-M   'P 1'
_cell_length_a   7.98328972
_cell_length_b   4.61728274
_cell_length_c   9.19269015
_cell_angle_alpha   90.00002714
_cell_angle_beta   54.98219576
_cell_angle_gamma   89.99994171
_symmetry_Int_Tables_number   1
_chemical_formula_structural   NaI
_chemical_formula_sum   'Na4 I4'
_cell_volume   277.51149278
_cell_formula_units_Z   4
loop_
 _symmetry_equiv_pos_site_id
 _symmetry_equiv_pos_as_xyz
  1  'x, y, z'
loop_
 _atom_site_type_symbol
 _atom_site_label
 _atom_site_symmetry_multiplicity
 _atom_site_fract_x
 _atom_site_fract_y
 _atom_site_fract_z
 _atom_site_occupancy
  Na  Na0  1  0.24891273  0.74989370  0.49832043  1
  Na  Na1  1  0.75109185  0.24988318  0.00167380  1
  Na  Na2  1  0.75108987  0.25010583  0.50167922  1
  Na  Na3  1  0.24890564  0.75011656  0.99832665  1
  I  I4  1  0.25024549  0.25057017  0.74825324  1
  I  I5  1  0.74975575  0.75056843  0.75174728  1
  I  I6  1  0.74975461  0.74943027  0.25174658  1
  I  I7  1  0.25024405  0.24943186  0.24825280  1
