# generated using pymatgen
data_LiBr
_symmetry_space_group_name_H-M   'P 1'
_cell_length_a   6.65217333
_cell_length_b   4.33907490
_cell_length_c   7.33471959
_cell_angle_alpha   90.00012132
_cell_angle_beta   89.99955859
_cell_angle_gamma   89.99975720
_symmetry_Int_Tables_number   1
_chemical_formula_structural   LiBr
_chemical_formula_sum   'Li4 Br4'
_cell_volume   211.71138767
_cell_formula_units_Z   4
loop_
 _symmetry_equiv_pos_site_id
 _symmetry_equiv_pos_as_xyz
  1  'x, y, z'
loop_
 _atom_site_type_symbol
 _atom_site_label
 _atom_site_symmetry_multiplicity
 _atom_site_fract_x
 _atom_site_fract_y
 _atom_site_fract_z
 _atom_site_occupancy
  Li  Li0  1  0.34055858  0.75084906  0.34688452  1
  Li  Li1  1  0.65944908  0.25085183  0.15311669  1
  Li  Li2  1  0.15943900  0.24914834  0.84688802  1
  Li  Li3  1  0.84055367  0.74914620  0.65311335  1
  Br  Br4  1  0.77088372  0.24885954  0.82424763  1
  Br  Br5  1  0.22910703  0.74885585  0.67575111  1
  Br  Br6  1  0.72911770  0.75114428  0.32424603  1
  Br  Br7  1  0.27089122  0.25114490  0.17575264  1
