# generated using pymatgen
data_LiI
_symmetry_space_group_name_H-M   'P 1'
_cell_length_a   7.17343944
_cell_length_b   9.71966749
_cell_length_c   7.07881564
_cell_angle_alpha   90.00006979
_cell_angle_beta   90.00095730
_cell_angle_gamma   89.99984938
_symmetry_Int_Tables_number   1
_chemical_formula_structural   LiI
_chemical_formula_sum   'Li8 I8'
_cell_volume   493.55942097
_cell_formula_units_Z   8
loop_
 _symmetry_equiv_pos_site_id
 _symmetry_equiv_pos_as_xyz
  1  'x, y, z'
loop_
 _atom_site_type_symbol
 _atom_site_label
 _atom_site_symmetry_multiplicity
 _atom_site_fract_x
 _atom_site_fract_y
 _atom_site_fract_z
 _atom_site_occupancy
  Li  Li0  1  -0.00166415  0.26249195  0.75021691  1
  Li  Li1  1  -0.00165948  0.23751559  0.25021598  1
  Li  Li2  1  0.49834276  0.23751763  0.24978124  1
  Li  Li3  1  0.50166330  0.73751672  0.25021793  1
  Li  Li4  1  0.00165677  0.76248917  0.74978367  1
  Li  Li5  1  0.50166113  0.76247772  0.75021832  1
  Li  Li6  1  0.49833401  0.26247960  0.74978186  1
  Li  Li7  1  0.00166634  0.73751282  0.24978268  1
  I  I8  1  0.24877269  0.37772592  0.48828462  1
  I  I9  1  0.24876921  0.12227465  -0.01171372  1
  I  I10  1  0.74877435  0.12227493  0.51171486  1
  I  I11  1  0.25122689  0.62227209  -0.01171410  1
  I  I12  1  0.75122605  0.87772553  0.01171582  1
  I  I13  1  0.25123027  0.87772461  0.48828778  1
  I  I14  1  0.74876840  0.37772781  0.01171262  1
  I  I15  1  0.75123146  0.62227327  0.51171354  1
