# generated using pymatgen
data_NaBr
_symmetry_space_group_name_H-M   'P 1'
_cell_length_a   4.26722399
_cell_length_b   4.26722407
_cell_length_c   12.02443103
_cell_angle_alpha   90.00000378
_cell_angle_beta   90.00001590
_cell_angle_gamma   89.99999943
_symmetry_Int_Tables_number   1
_chemical_formula_structural   NaBr
_chemical_formula_sum   'Na4 Br4'
_cell_volume   218.95528047
_cell_formula_units_Z   4
loop_
 _symmetry_equiv_pos_site_id
 _symmetry_equiv_pos_as_xyz
  1  'x, y, z'
loop_
 _atom_site_type_symbol
 _atom_site_label
 _atom_site_symmetry_multiplicity
 _atom_site_fract_x
 _atom_site_fract_y
 _atom_site_fract_z
 _atom_site_occupancy
  Na  Na0  1  0.49688140  0.00341282  0.31833434  1
  Na  Na1  1  0.00341277  0.50311864  0.56833509  1
  Na  Na2  1  0.50311862  0.99658722  0.81833577  1
  Na  Na3  1  0.99658718  0.49688142  0.06833503  1
  Br  Br4  1  0.49759983  0.99670300  0.06833298  1
  Br  Br5  1  0.99670301  0.50240019  0.31833312  1
  Br  Br6  1  0.50240021  0.00329693  0.56833377  1
  Br  Br7  1  0.00329697  0.49759978  0.81833362  1
