# generated using pymatgen
data_LiBr
_symmetry_space_group_name_H-M   'P 1'
_cell_length_a   4.51908269
_cell_length_b   10.57526586
_cell_length_c   4.56987743
_cell_angle_alpha   90.00003467
_cell_angle_beta   90.00000552
_cell_angle_gamma   90.00577040
_symmetry_Int_Tables_number   1
_chemical_formula_structural   LiBr
_chemical_formula_sum   'Li4 Br4'
_cell_volume   218.39673000
_cell_formula_units_Z   4
loop_
 _symmetry_equiv_pos_site_id
 _symmetry_equiv_pos_as_xyz
  1  'x, y, z'
loop_
 _atom_site_type_symbol
 _atom_site_label
 _atom_site_symmetry_multiplicity
 _atom_site_fract_x
 _atom_site_fract_y
 _atom_site_fract_z
 _atom_site_occupancy
  Li  Li0  1  0.00021084  0.00245281  0.24262036  1
  Li  Li1  1  -0.00022525  0.50244214  0.25737760  1
  Li  Li2  1  0.49978926  -0.00245290  0.74262072  1
  Li  Li3  1  0.50022535  0.49755794  0.75737692  1
  Br  Br4  1  -0.00011285  0.11059951  0.74276033  1
  Br  Br5  1  0.00006632  0.61060699  0.75724236  1
  Br  Br6  1  0.50011258  0.88940060  0.24276031  1
  Br  Br7  1  0.49993375  0.38939291  0.25724140  1
