# generated using pymatgen
data_KI
_symmetry_space_group_name_H-M   'P 1'
_cell_length_a   14.36975651
_cell_length_b   5.08505628
_cell_length_c   5.08546431
_cell_angle_alpha   89.99998847
_cell_angle_beta   89.99999619
_cell_angle_gamma   89.99999882
_symmetry_Int_Tables_number   1
_chemical_formula_structural   KI
_chemical_formula_sum   'K4 I4'
_cell_volume   371.60006669
_cell_formula_units_Z   4
loop_
 _symmetry_equiv_pos_site_id
 _symmetry_equiv_pos_as_xyz
  1  'x, y, z'
loop_
 _atom_site_type_symbol
 _atom_site_label
 _atom_site_symmetry_multiplicity
 _atom_site_fract_x
 _atom_site_fract_y
 _atom_site_fract_z
 _atom_site_occupancy
  K  K0  1  0.62537683  -0.25565967  0.49496095  1
  K  K1  1  0.37462314  0.24434032  0.00503900  1
  K  K2  1  0.87462323  0.25565968  -0.00503938  1
  K  K3  1  0.12537680  0.75565967  0.50503943  1
  I  I4  1  0.37525394  0.74471773  0.50493449  1
  I  I5  1  0.62474603  0.24471774  -0.00493456  1
  I  I6  1  0.12474601  0.25528228  0.00493416  1
  I  I7  1  0.87525402  0.75528226  0.49506590  1
