# generated using pymatgen
data_LiI
_symmetry_space_group_name_H-M   'P 1'
_cell_length_a   12.42466157
_cell_length_b   14.67764023
_cell_length_c   8.04219267
_cell_angle_alpha   90.86985840
_cell_angle_beta   87.80491273
_cell_angle_gamma   126.94023762
_symmetry_Int_Tables_number   1
_chemical_formula_structural   LiI
_chemical_formula_sum   'Li18 I18'
_cell_volume   1171.29197303
_cell_formula_units_Z   18
loop_
 _symmetry_equiv_pos_site_id
 _symmetry_equiv_pos_as_xyz
  1  'x, y, z'
loop_
 _atom_site_type_symbol
 _atom_site_label
 _atom_site_symmetry_multiplicity
 _atom_site_fract_x
 _atom_site_fract_y
 _atom_site_fract_z
 _atom_site_occupancy
  Li  Li0  1  0.23714318  0.87492578  0.65141848  1
  Li  Li1  1  0.00972423  0.52005466  0.74979146  1
  Li  Li2  1  0.76285388  0.12509379  0.34853142  1
  Li  Li3  1  0.65695215  0.81328312  0.58355558  1
  Li  Li4  1  0.57095564  0.03225701  0.81811428  1
  Li  Li5  1  0.90429606  0.69893447  0.48481705  1
  Li  Li6  1  0.76238566  0.63440573  0.84851502  1
  Li  Li7  1  0.09568166  0.30103514  0.51519925  1
  Li  Li8  1  0.34304456  0.18671518  0.41646164  1
  Li  Li9  1  0.23762030  0.36561037  0.15152299  1
  Li  Li10  1  0.42904091  -0.03227627  0.18181958  1
  Li  Li11  1  0.32362999  0.14661848  0.91687345  1
  Li  Li12  1  0.67639394  0.85339145  0.08315218  1
  Li  Li13  1  -0.00968604  0.47996119  0.25019746  1
  Li  Li14  1  0.90380131  0.20825837  0.98475204  1
  Li  Li15  1  0.09620636  0.79175172  0.01520841  1
  Li  Li16  1  0.42952356  0.45839794  0.68194043  1
  Li  Li17  1  0.57045063  0.54158973  0.31812920  1
  I  I18  1  0.77488143  0.00606055  0.80094791  1
  I  I19  1  0.44534796  0.10662922  0.64320223  1
  I  I20  1  0.22512212  -0.00606858  0.19905152  1
  I  I21  1  0.22131149  0.22668852  0.69012265  1
  I  I22  1  0.66539645  0.48394682  0.57782542  1
  I  I23  1  -0.00127915  0.15061155  0.24447490  1
  I  I24  1  0.66792695  0.18272052  0.08880829  1
  I  I25  1  0.00127386  0.84939325  0.75550431  1
  I  I26  1  0.77867400  0.77329239  0.30990391  1
  I  I27  1  0.33206620  0.81727753  0.91112526  1
  I  I28  1  0.33458143  0.51604117  0.42223380  1
  I  I29  1  0.88800138  0.56004807  0.02344400  1
  I  I30  1  0.11202125  0.43995972  0.97654112  1
  I  I31  1  0.55466059  0.89338947  0.35679441  1
  I  I32  1  0.44153669  0.33940174  0.13428423  1
  I  I33  1  0.55846235  0.66060103  0.86574680  1
  I  I34  1  0.89178058  0.32726560  0.53238616  1
  I  I35  1  0.10821645  0.67273357  0.46760314  1
