# generated using pymatgen
data_LiI
_symmetry_space_group_name_H-M   'P 1'
_cell_length_a   13.92927359
_cell_length_b   4.15498280
_cell_length_c   8.24316214
_cell_angle_alpha   90.00018753
_cell_angle_beta   90.00128406
_cell_angle_gamma   89.99987465
_symmetry_Int_Tables_number   1
_chemical_formula_structural   LiI
_chemical_formula_sum   'Li8 I8'
_cell_volume   477.08036265
_cell_formula_units_Z   8
loop_
 _symmetry_equiv_pos_site_id
 _symmetry_equiv_pos_as_xyz
  1  'x, y, z'
loop_
 _atom_site_type_symbol
 _atom_site_label
 _atom_site_symmetry_multiplicity
 _atom_site_fract_x
 _atom_site_fract_y
 _atom_site_fract_z
 _atom_site_occupancy
  Li  Li0  1  0.91562562  0.25058632  0.62671515  1
  Li  Li1  1  0.91562521  0.24941388  0.12671630  1
  Li  Li2  1  0.41562305  0.24942496  0.37327303  1
  Li  Li3  1  0.58437432  0.74941719  0.12672276  1
  Li  Li4  1  0.08437700  0.75058063  0.87328779  1
  Li  Li5  1  0.58437649  0.75058112  0.62672143  1
  Li  Li6  1  0.41562418  0.25058198  0.87327130  1
  Li  Li7  1  0.08437623  0.74941411  0.37328934  1
  I  I8  1  0.61610119  0.25200174  0.37558920  1
  I  I9  1  0.61610219  0.24799653  0.87559018  1
  I  I10  1  0.11610477  0.24799426  0.62441949  1
  I  I11  1  0.88389722  0.74799463  0.87558201  1
  I  I12  1  0.38389508  0.75200307  0.12440941  1
  I  I13  1  0.88389665  0.75200420  0.37558221  1
  I  I14  1  0.11610434  0.25200223  0.12442003  1
  I  I15  1  0.38389645  0.74800316  0.62441035  1
