# generated using pymatgen
data_LiI
_symmetry_space_group_name_H-M   'P 1'
_cell_length_a   12.58876886
_cell_length_b   12.58883041
_cell_length_c   8.67767641
_cell_angle_alpha   90.00385620
_cell_angle_beta   89.99590723
_cell_angle_gamma   120.00866461
_symmetry_Int_Tables_number   1
_chemical_formula_structural   LiI
_chemical_formula_sum   'Li18 I18'
_cell_volume   1190.87121789
_cell_formula_units_Z   18
loop_
 _symmetry_equiv_pos_site_id
 _symmetry_equiv_pos_as_xyz
  1  'x, y, z'
loop_
 _atom_site_type_symbol
 _atom_site_label
 _atom_site_symmetry_multiplicity
 _atom_site_fract_x
 _atom_site_fract_y
 _atom_site_fract_z
 _atom_site_occupancy
  Li  Li0  1  0.12917695  0.26214998  0.59880670  1
  Li  Li1  1  0.12916220  0.86704445  0.09876752  1
  Li  Li2  1  0.07112105  0.53754279  0.76532659  1
  Li  Li3  1  0.46640277  0.92885529  0.76530238  1
  Li  Li4  1  0.40457110  0.20032774  0.93170309  1
  Li  Li5  1  0.73787850  0.86703689  0.59877806  1
  Li  Li6  1  0.46639280  0.53754886  0.26529861  1
  Li  Li7  1  0.07114639  0.53360156  0.26530112  1
  Li  Li8  1  0.13295217  0.87083469  0.59876865  1
  Li  Li9  1  0.13296634  0.26212771  0.09876476  1
  Li  Li10  1  0.46246083  0.92888075  0.26533194  1
  Li  Li11  1  0.46245723  0.53361027  0.76529763  1
  Li  Li12  1  0.79966390  0.20423600  0.93167355  1
  Li  Li13  1  0.79966729  0.59542220  0.43170166  1
  Li  Li14  1  0.73785338  0.87082385  0.09881462  1
  Li  Li15  1  0.40454173  0.20422995  0.43172912  1
  Li  Li16  1  0.79576565  0.59544807  0.93173050  1
  Li  Li17  1  0.79576382  0.20033574  0.43167028  1
  I  I18  1  0.90634641  0.45459581  0.00557200  1
  I  I19  1  0.90635812  0.45174060  0.50557283  1
  I  I20  1  0.87872330  0.76024202  0.17205201  1
  I  I21  1  0.88153607  0.12128146  0.17202752  1
  I  I22  1  0.21202575  0.78506669  0.33898984  1
  I  I23  1  0.54538388  0.45173429  0.00558313  1
  I  I24  1  0.88152751  0.76023188  0.67205356  1
  I  I25  1  0.87871968  0.11846681  0.67202774  1
  I  I26  1  0.54825982  0.09364362  0.00557602  1
  I  I27  1  0.54826060  0.45461161  0.50558237  1
  I  I28  1  0.23975056  0.12127338  0.67205231  1
  I  I29  1  0.23975901  0.11846853  0.17205240  1
  I  I30  1  0.21492306  0.42694101  0.33898385  1
  I  I31  1  0.21493676  0.78797542  0.83898956  1
  I  I32  1  0.54540417  0.09365812  0.50557397  1
  I  I33  1  0.21203748  0.42696495  0.83898250  1
  I  I34  1  0.57304098  0.78796695  0.33899341  1
  I  I35  1  0.57306275  0.78508008  0.83899317  1
