# generated using pymatgen
data_KI
_symmetry_space_group_name_H-M   'P 1'
_cell_length_a   5.09614088
_cell_length_b   5.09657643
_cell_length_c   12.39850104
_cell_angle_alpha   89.99513811
_cell_angle_beta   89.99736414
_cell_angle_gamma   119.99921660
_symmetry_Int_Tables_number   1
_chemical_formula_structural   KI
_chemical_formula_sum   'K3 I3'
_cell_volume   278.88374705
_cell_formula_units_Z   3
loop_
 _symmetry_equiv_pos_site_id
 _symmetry_equiv_pos_as_xyz
  1  'x, y, z'
loop_
 _atom_site_type_symbol
 _atom_site_label
 _atom_site_symmetry_multiplicity
 _atom_site_fract_x
 _atom_site_fract_y
 _atom_site_fract_z
 _atom_site_occupancy
  K  K0  1  0.33414611  0.33559501  -0.04967019  1
  K  K1  1  0.66440212  -0.00145123  0.61699694  1
  K  K2  1  0.00144956  0.66585366  0.28366343  1
  I  I3  1  0.66862079  0.00172292  0.11716131  1
  I  I4  1  -0.00172208  0.66689880  0.78382821  1
  I  I5  1  0.33310350  0.33138085  0.45049478  1
