# generated using pymatgen
data_LiI
_symmetry_space_group_name_H-M   'P 1'
_cell_length_a   8.58132573
_cell_length_b   8.58628488
_cell_length_c   14.07123693
_cell_angle_alpha   89.99978524
_cell_angle_beta   90.00069792
_cell_angle_gamma   90.00128135
_symmetry_Int_Tables_number   1
_chemical_formula_structural   LiI
_chemical_formula_sum   'Li16 I16'
_cell_volume   1036.79276036
_cell_formula_units_Z   16
loop_
 _symmetry_equiv_pos_site_id
 _symmetry_equiv_pos_as_xyz
  1  'x, y, z'
loop_
 _atom_site_type_symbol
 _atom_site_label
 _atom_site_symmetry_multiplicity
 _atom_site_fract_x
 _atom_site_fract_y
 _atom_site_fract_z
 _atom_site_occupancy
  Li  Li0  1  0.30704253  0.80556681  0.88661063  1
  Li  Li1  1  0.30627584  0.30561468  0.13642478  1
  Li  Li2  1  0.69292618  0.80556686  0.38661340  1
  Li  Li3  1  0.69295535  0.19441816  0.88660924  1
  Li  Li4  1  0.69371450  0.69438882  0.13642209  1
  Li  Li5  1  0.19370174  0.80560202  0.13641778  1
  Li  Li6  1  0.80626482  0.19440436  0.13642399  1
  Li  Li7  1  0.69374277  0.30560527  0.63642411  1
  Li  Li8  1  0.30626223  0.69438437  0.63642823  1
  Li  Li9  1  0.19293779  0.69442199  0.38661243  1
  Li  Li10  1  0.19374965  0.19438760  0.63642850  1
  Li  Li11  1  0.80706861  0.30559007  0.38661293  1
  Li  Li12  1  0.80626283  0.80562830  0.63642921  1
  Li  Li13  1  0.19295173  0.30555077  0.88661306  1
  Li  Li14  1  0.80704965  0.69443142  0.88660866  1
  Li  Li15  1  0.30706454  0.19442173  0.38661008  1
  I  I16  1  0.24987284  0.94705026  0.51135231  1
  I  I17  1  0.44554837  0.25039183  0.76126036  1
  I  I18  1  0.75015573  0.94705561  0.01136153  1
  I  I19  1  0.75013808  0.05295010  0.51134503  1
  I  I20  1  0.55445892  0.74964083  0.76126205  1
  I  I21  1  0.05445582  0.75037261  0.76125688  1
  I  I22  1  0.94554570  0.24961185  0.76125782  1
  I  I23  1  0.55446842  0.25039819  0.26126375  1
  I  I24  1  0.44552259  0.74963565  0.26125717  1
  I  I25  1  0.25012252  0.55293999  0.01135451  1
  I  I26  1  0.05447292  0.24961008  0.26125975  1
  I  I27  1  0.74985762  0.44705744  0.01135174  1
  I  I28  1  0.94552182  0.75035879  0.26126464  1
  I  I29  1  0.25012960  0.44705083  0.51135103  1
  I  I30  1  0.74986783  0.55295375  0.51135855  1
  I  I31  1  0.24989046  0.05293896  0.01135950  1
