# generated using pymatgen
data_NaBr
_symmetry_space_group_name_H-M   'P 1'
_cell_length_a   6.03908687
_cell_length_b   6.02614279
_cell_length_c   6.04288478
_cell_angle_alpha   90.00002861
_cell_angle_beta   90.00002361
_cell_angle_gamma   90.00000292
_symmetry_Int_Tables_number   1
_chemical_formula_structural   NaBr
_chemical_formula_sum   'Na4 Br4'
_cell_volume   219.91507903
_cell_formula_units_Z   4
loop_
 _symmetry_equiv_pos_site_id
 _symmetry_equiv_pos_as_xyz
  1  'x, y, z'
loop_
 _atom_site_type_symbol
 _atom_site_label
 _atom_site_symmetry_multiplicity
 _atom_site_fract_x
 _atom_site_fract_y
 _atom_site_fract_z
 _atom_site_occupancy
  Na  Na0  1  0.24913622  0.75158960  0.75109591  1
  Na  Na1  1  0.25086375  0.25158959  0.24889700  1
  Na  Na2  1  0.75086367  0.24841030  0.75110593  1
  Na  Na3  1  0.74913627  0.74841028  0.24890111  1
  Br  Br4  1  0.74968524  0.74839725  0.74962485  1
  Br  Br5  1  0.75031480  0.24839736  0.25038358  1
  Br  Br6  1  0.25031487  0.25160276  0.74961888  1
  Br  Br7  1  0.24968516  0.75160287  0.25037274  1
