# generated using pymatgen
data_NaI
_symmetry_space_group_name_H-M   'P 1'
_cell_length_a   8.64089323
_cell_length_b   8.24750434
_cell_length_c   5.16711033
_cell_angle_alpha   89.97466145
_cell_angle_beta   90.17441201
_cell_angle_gamma   89.99502952
_symmetry_Int_Tables_number   1
_chemical_formula_structural   NaI
_chemical_formula_sum   'Na4 I4'
_cell_volume   368.23653091
_cell_formula_units_Z   4
loop_
 _symmetry_equiv_pos_site_id
 _symmetry_equiv_pos_as_xyz
  1  'x, y, z'
loop_
 _atom_site_type_symbol
 _atom_site_label
 _atom_site_symmetry_multiplicity
 _atom_site_fract_x
 _atom_site_fract_y
 _atom_site_fract_z
 _atom_site_occupancy
  Na  Na0  1  0.21140138  0.36594505  0.25073496  1
  Na  Na1  1  0.28855646  -0.13387659  0.74969583  1
  Na  Na2  1  0.78882498  0.63391266  0.24985256  1
  Na  Na3  1  0.71116487  0.13406791  0.74971255  1
  I  I4  1  0.86046317  0.26418982  0.25021884  1
  I  I5  1  0.63957755  0.76435737  0.74897798  1
  I  I6  1  0.13961239  0.73563707  0.24894095  1
  I  I7  1  0.36039920  0.23576671  0.75186633  1
