# generated using pymatgen
data_LiI
_symmetry_space_group_name_H-M   'P 1'
_cell_length_a   17.01986877
_cell_length_b   13.97331979
_cell_length_c   4.40124824
_cell_angle_alpha   89.99984064
_cell_angle_beta   89.99963003
_cell_angle_gamma   90.01929031
_symmetry_Int_Tables_number   1
_chemical_formula_structural   LiI
_chemical_formula_sum   'Li16 I16'
_cell_volume   1046.72270559
_cell_formula_units_Z   16
loop_
 _symmetry_equiv_pos_site_id
 _symmetry_equiv_pos_as_xyz
  1  'x, y, z'
loop_
 _atom_site_type_symbol
 _atom_site_label
 _atom_site_symmetry_multiplicity
 _atom_site_fract_x
 _atom_site_fract_y
 _atom_site_fract_z
 _atom_site_occupancy
  Li  Li0  1  0.66695294  0.48929597  0.40522085  1
  Li  Li1  1  0.33304395  0.51072228  0.40526646  1
  Li  Li2  1  0.58303246  0.73903385  0.65517220  1
  Li  Li3  1  0.83304633  0.51070885  0.90522289  1
  Li  Li4  1  0.08302917  0.73902729  0.15513829  1
  Li  Li5  1  0.91696823  0.76096355  0.65515789  1
  Li  Li6  1  0.16695209  0.48927973  0.90524493  1
  Li  Li7  1  0.08302042  0.23901483  0.65521220  1
  Li  Li8  1  0.91697119  0.26097072  0.15522679  1
  Li  Li9  1  0.16695566  0.98928261  0.40525617  1
  Li  Li10  1  0.83304439  0.01070683  0.40518603  1
  Li  Li11  1  0.58302626  0.23903253  0.15518822  1
  Li  Li12  1  0.41697704  0.76097551  0.15518298  1
  Li  Li13  1  0.41697356  0.26097875  0.65520730  1
  Li  Li14  1  0.66695625  0.98929093  0.90517766  1
  Li  Li15  1  0.33304958  0.01071283  0.90526379  1
  I  I16  1  0.68937146  0.10837813  0.39865614  1
  I  I17  1  0.31063358  0.89162557  0.39873987  1
  I  I18  1  0.56067886  0.35828021  0.64877167  1
  I  I19  1  0.81062819  0.89162180  0.89866486  1
  I  I20  1  0.06067904  0.35826192  0.14879979  1
  I  I21  1  0.93931703  0.14172413  0.64880879  1
  I  I22  1  0.18936744  0.10837192  0.89873008  1
  I  I23  1  0.06067469  0.85828009  0.64871466  1
  I  I24  1  0.93932591  0.64171343  0.14872966  1
  I  I25  1  0.18936272  0.60837093  0.39872231  1
  I  I26  1  0.81063019  0.39162234  0.39869988  1
  I  I27  1  0.56067765  0.85828221  0.14875490  1
  I  I28  1  0.43931885  0.14172861  0.14878472  1
  I  I29  1  0.43932712  0.64172903  0.64875871  1
  I  I30  1  0.68937320  0.60837995  0.89869836  1
  I  I31  1  0.31063453  0.39163269  0.89874382  1
