# generated using pymatgen
data_LiI
_symmetry_space_group_name_H-M   'P 1'
_cell_length_a   12.49977238
_cell_length_b   12.49961408
_cell_length_c   8.72512304
_cell_angle_alpha   89.98632384
_cell_angle_beta   90.01524868
_cell_angle_gamma   119.99985820
_symmetry_Int_Tables_number   1
_chemical_formula_structural   LiI
_chemical_formula_sum   'Li18 I18'
_cell_volume   1180.59653159
_cell_formula_units_Z   18
loop_
 _symmetry_equiv_pos_site_id
 _symmetry_equiv_pos_as_xyz
  1  'x, y, z'
loop_
 _atom_site_type_symbol
 _atom_site_label
 _atom_site_symmetry_multiplicity
 _atom_site_fract_x
 _atom_site_fract_y
 _atom_site_fract_z
 _atom_site_occupancy
  Li  Li0  1  0.13433824  0.87101148  0.59111603  1
  Li  Li1  1  0.13435439  0.26336475  0.09097011  1
  Li  Li2  1  0.46232052  0.53232096  0.75777552  1
  Li  Li3  1  0.06995739  0.53765098  0.75765490  1
  Li  Li4  1  0.79569482  0.59672655  0.92431722  1
  Li  Li5  1  0.12901177  0.26337637  0.59098022  1
  Li  Li6  1  0.06997301  0.53230999  0.25763826  1
  Li  Li7  1  0.46234810  0.93005420  0.25762659  1
  Li  Li8  1  0.73661456  0.86562923  0.59094001  1
  Li  Li9  1  0.73660252  0.87097892  0.09095711  1
  Li  Li10  1  0.46766480  0.53766750  0.25777637  1
  Li  Li11  1  0.46768724  0.93003589  0.75759982  1
  Li  Li12  1  0.40330322  0.19897129  0.92426776  1
  Li  Li13  1  0.40329048  0.20432312  0.42428391  1
  Li  Li14  1  0.12898143  0.86565805  0.09110849  1
  Li  Li15  1  0.79566722  0.19900860  0.42444470  1
  Li  Li16  1  0.80101006  0.20434868  0.92444631  1
  Li  Li17  1  0.80103116  0.59670269  0.42429413  1
  I  I18  1  0.57296368  0.78422665  0.83192152  1
  I  I19  1  0.57297313  0.78871405  0.33188043  1
  I  I20  1  0.54909794  0.09369685  -0.00140277  1
  I  I21  1  0.54465596  0.45094197  -0.00122006  1
  I  I22  1  0.88239313  0.12201474  0.16544917  1
  I  I23  1  0.21572368  0.78868698  0.83211433  1
  I  I24  1  0.54461914  0.09367629  0.49854313  1
  I  I25  1  0.54906604  0.45535188  0.49878019  1
  I  I26  1  0.21127983  0.42700009  0.83191292  1
  I  I27  1  0.21131749  0.78428193  0.33211734  1
  I  I28  1  0.90631358  0.45091105  0.49861972  1
  I  I29  1  0.90632950  0.45539141  -0.00142779  1
  I  I30  1  0.87794402  0.76034665  0.16523141  1
  I  I31  1  0.87797627  0.11760326  0.66545228  1
  I  I32  1  0.21575678  0.42701555  0.33195143  1
  I  I33  1  0.88242425  0.76037378  0.66529462  1
  I  I34  1  0.23965207  0.11757905  0.16525001  1
  I  I35  1  0.23966259  0.12204856  0.66520327  1
