# generated using pymatgen
data_LiI
_symmetry_space_group_name_H-M   'P 1'
_cell_length_a   12.34375251
_cell_length_b   12.34374864
_cell_length_c   9.07572047
_cell_angle_alpha   89.99690991
_cell_angle_beta   90.00298247
_cell_angle_gamma   120.00673699
_symmetry_Int_Tables_number   1
_chemical_formula_structural   LiI
_chemical_formula_sum   'Li18 I18'
_cell_volume   1197.50278108
_cell_formula_units_Z   18
loop_
 _symmetry_equiv_pos_site_id
 _symmetry_equiv_pos_as_xyz
  1  'x, y, z'
loop_
 _atom_site_type_symbol
 _atom_site_label
 _atom_site_symmetry_multiplicity
 _atom_site_fract_x
 _atom_site_fract_y
 _atom_site_fract_z
 _atom_site_occupancy
  Li  Li0  1  -0.00416510  0.39218482  0.26672718  1
  Li  Li1  1  -0.00420198  0.60357961  0.76673719  1
  Li  Li2  1  0.94115297  0.67083435  0.43339287  1
  Li  Li3  1  0.72965590  0.05881134  0.43337530  1
  Li  Li4  1  0.27452289  0.93701304  0.60004184  1
  Li  Li5  1  0.60785382  0.60367882  0.26670768  1
  Li  Li6  1  0.72975388  0.67086553  0.93340609  1
  Li  Li7  1  0.94118497  0.27034065  0.93337650  1
  Li  Li8  1  0.39642265  0.00419946  0.26674000  1
  Li  Li9  1  0.39632144  0.39214498  0.76670681  1
  Li  Li10  1  0.32916932  0.05885116  0.93339550  1
  Li  Li11  1  0.32913009  0.27024714  0.43340499  1
  Li  Li12  1  0.06308669  0.33753578  0.60007392  1
  Li  Li13  1  0.06298913  0.72547656  0.10003960  1
  Li  Li14  1  0.60781783  0.00416387  0.76672846  1
  Li  Li15  1  0.27448419  0.33749954  0.10006218  1
  Li  Li16  1  0.66250239  0.72551752  0.60006348  1
  Li  Li17  1  0.66246501  0.93691142  0.10007262  1
  I  I18  1  0.56145271  0.46860292  0.52825338  1
  I  I19  1  0.56147494  0.09285293  0.02827331  1
  I  I20  1  0.86473333  0.10521238  0.69492057  1
  I  I21  1  0.24039628  0.13525120  0.69498690  1
  I  I22  1  0.19807907  0.42626818  0.86165572  1
  I  I23  1  0.53141590  0.09293618  0.52832036  1
  I  I24  1  0.24048083  0.10519396  0.19494200  1
  I  I25  1  0.86474912  0.75960230  0.19498574  1
  I  I26  1  0.90714518  0.43852657  0.52827253  1
  I  I27  1  0.90706112  0.46858312  0.02831831  1
  I  I28  1  0.89478947  0.13526856  0.19492178  1
  I  I29  1  0.89480827  0.75952166  0.69494034  1
  I  I30  1  0.57381175  0.77185847  0.86160936  1
  I  I31  1  0.57373087  0.80191920  0.36165507  1
  I  I32  1  0.53139759  0.43854430  0.02825325  1
  I  I33  1  0.19806645  0.77187873  0.36158624  1
  I  I34  1  0.22812092  0.80193467  0.86158665  1
  I  I35  1  0.22814014  0.42618912  0.36160841  1
