# generated using pymatgen
data_KI
_symmetry_space_group_name_H-M   'P 1'
_cell_length_a   5.10802686
_cell_length_b   5.06046826
_cell_length_c   14.32447525
_cell_angle_alpha   90.00000080
_cell_angle_beta   89.96790768
_cell_angle_gamma   89.99999978
_symmetry_Int_Tables_number   1
_chemical_formula_structural   KI
_chemical_formula_sum   'K4 I4'
_cell_volume   370.27341416
_cell_formula_units_Z   4
loop_
 _symmetry_equiv_pos_site_id
 _symmetry_equiv_pos_as_xyz
  1  'x, y, z'
loop_
 _atom_site_type_symbol
 _atom_site_label
 _atom_site_symmetry_multiplicity
 _atom_site_fract_x
 _atom_site_fract_y
 _atom_site_fract_z
 _atom_site_occupancy
  K  K0  1  0.75301869  0.75309041  0.12547174  1
  K  K1  1  0.24698127  0.25309042  0.37452845  1
  K  K2  1  0.24698129  0.24690960  0.87452824  1
  K  K3  1  0.75301874  0.74690960  0.62547155  1
  I  I4  1  0.74726830  0.74783942  0.87516794  1
  I  I5  1  0.25273175  0.24783944  0.62483200  1
  I  I6  1  0.25273169  0.25216055  0.12483206  1
  I  I7  1  0.74726826  0.75216057  0.37516801  1
