# generated using pymatgen
data_NaI
_symmetry_space_group_name_H-M   'P 1'
_cell_length_a   13.07696041
_cell_length_b   6.53073524
_cell_length_c   6.53452603
_cell_angle_alpha   89.99911235
_cell_angle_beta   89.99811482
_cell_angle_gamma   89.99987724
_symmetry_Int_Tables_number   1
_chemical_formula_structural   NaI
_chemical_formula_sum   'Na8 I8'
_cell_volume   558.06267766
_cell_formula_units_Z   8
loop_
 _symmetry_equiv_pos_site_id
 _symmetry_equiv_pos_as_xyz
  1  'x, y, z'
loop_
 _atom_site_type_symbol
 _atom_site_label
 _atom_site_symmetry_multiplicity
 _atom_site_fract_x
 _atom_site_fract_y
 _atom_site_fract_z
 _atom_site_occupancy
  Na  Na0  1  0.37569238  0.49879321  0.24927307  1
  Na  Na1  1  0.37569765  0.00120734  0.74928541  1
  Na  Na2  1  0.87569209  0.00120600  0.75072493  1
  Na  Na3  1  0.12430226  0.50120712  0.74928734  1
  Na  Na4  1  0.62430236  -0.00120718  0.25071463  1
  Na  Na5  1  0.12430792  -0.00120606  0.24927504  1
  Na  Na6  1  0.87569772  0.49879291  0.25071271  1
  Na  Na7  1  0.62430763  0.50120667  0.75072690  1
  I  I8  1  0.37464553  0.50053923  0.74945638  1
  I  I9  1  0.37464649  -0.00053843  0.24947478  1
  I  I10  1  0.87464529  -0.00053890  0.25054469  1
  I  I11  1  0.12535334  0.49946220  0.24947387  1
  I  I12  1  0.62535350  0.00053841  0.75052521  1
  I  I13  1  0.12535470  0.00053890  0.74945527  1
  I  I14  1  0.87464665  0.50053775  0.75052616  1
  I  I15  1  0.62535449  0.49946084  0.25054360  1
