# generated using pymatgen
data_LiBr
_symmetry_space_group_name_H-M   'P 1'
_cell_length_a   6.60883556
_cell_length_b   6.60896790
_cell_length_c   3.95285546
_cell_angle_alpha   89.99954013
_cell_angle_beta   89.99091091
_cell_angle_gamma   120.00321874
_symmetry_Int_Tables_number   1
_chemical_formula_structural   LiBr
_chemical_formula_sum   'Li3 Br3'
_cell_volume   149.51544574
_cell_formula_units_Z   3
loop_
 _symmetry_equiv_pos_site_id
 _symmetry_equiv_pos_as_xyz
  1  'x, y, z'
loop_
 _atom_site_type_symbol
 _atom_site_label
 _atom_site_symmetry_multiplicity
 _atom_site_fract_x
 _atom_site_fract_y
 _atom_site_fract_z
 _atom_site_occupancy
  Li  Li0  1  0.33343852  0.05623210  0.53105365  1
  Li  Li1  1  0.94376792  0.27728700  0.86481924  1
  Li  Li2  1  0.72275883  0.66654382  0.19782949  1
  Br  Br3  1  0.69205278  0.02542781  0.36486934  1
  Br  Br4  1  0.97454243  0.66655897  0.69777547  1
  Br  Br5  1  0.33343951  0.30795030  0.03106275  1
