# generated using pymatgen
data_LiI
_symmetry_space_group_name_H-M   'P 1'
_cell_length_a   7.15845217
_cell_length_b   7.98706763
_cell_length_c   9.90077778
_cell_angle_alpha   89.99995662
_cell_angle_beta   89.99996534
_cell_angle_gamma   90.00000563
_symmetry_Int_Tables_number   1
_chemical_formula_structural   LiI
_chemical_formula_sum   'Li8 I8'
_cell_volume   566.07738116
_cell_formula_units_Z   8
loop_
 _symmetry_equiv_pos_site_id
 _symmetry_equiv_pos_as_xyz
  1  'x, y, z'
loop_
 _atom_site_type_symbol
 _atom_site_label
 _atom_site_symmetry_multiplicity
 _atom_site_fract_x
 _atom_site_fract_y
 _atom_site_fract_z
 _atom_site_occupancy
  Li  Li0  1  0.50127720  0.24910131  0.50114937  1
  Li  Li1  1  0.50127695  0.25089789  0.00114803  1
  Li  Li2  1  0.00127853  0.25089890  0.49884771  1
  Li  Li3  1  -0.00127748  0.75089653  0.00115163  1
  Li  Li4  1  0.49872369  0.74910423  -0.00114966  1
  Li  Li5  1  -0.00128172  0.74909969  0.50115209  1
  Li  Li6  1  0.00128089  0.24910180  -0.00115064  1
  Li  Li7  1  0.49872145  0.75089929  0.49885177  1
  I  I8  1  0.75028751  0.49935558  0.89856436  1
  I  I9  1  0.75028610  0.00064414  0.39856591  1
  I  I10  1  0.25028748  0.00064340  0.10143670  1
  I  I11  1  0.74971114  0.50064342  0.39856330  1
  I  I12  1  0.24971108  0.99935563  0.60143580  1
  I  I13  1  0.74971550  0.99935697  0.89856163  1
  I  I14  1  0.25028610  0.49935630  0.60143826  1
  I  I15  1  0.24971559  0.50064493  0.10143375  1
