# generated using pymatgen
data_KI
_symmetry_space_group_name_H-M   'P 1'
_cell_length_a   8.45665729
_cell_length_b   4.98609455
_cell_length_c   8.87466259
_cell_angle_alpha   90.00024398
_cell_angle_beta   89.99990970
_cell_angle_gamma   90.00045079
_symmetry_Int_Tables_number   1
_chemical_formula_structural   KI
_chemical_formula_sum   'K4 I4'
_cell_volume   374.20629667
_cell_formula_units_Z   4
loop_
 _symmetry_equiv_pos_site_id
 _symmetry_equiv_pos_as_xyz
  1  'x, y, z'
loop_
 _atom_site_type_symbol
 _atom_site_label
 _atom_site_symmetry_multiplicity
 _atom_site_fract_x
 _atom_site_fract_y
 _atom_site_fract_z
 _atom_site_occupancy
  K  K0  1  0.58698897  0.24867268  0.41187908  1
  K  K1  1  0.08698864  0.75132613  0.41187904  1
  K  K2  1  0.41301263  0.75132885  0.91187635  1
  K  K3  1  0.91301331  0.24867272  0.91187563  1
  I  I4  1  0.74980075  0.74927433  0.66193325  1
  I  I5  1  0.24980038  0.25072458  0.66193469  1
  I  I6  1  0.25019771  0.25072621  0.16193659  1
  I  I7  1  0.75019761  0.74927450  0.16193771  1
