# generated using pymatgen
data_LiI
_symmetry_space_group_name_H-M   'P 1'
_cell_length_a   6.15383691
_cell_length_b   6.15399705
_cell_length_c   14.04433513
_cell_angle_alpha   89.99746362
_cell_angle_beta   89.99546853
_cell_angle_gamma   89.99824383
_symmetry_Int_Tables_number   1
_chemical_formula_structural   LiI
_chemical_formula_sum   'Li8 I8'
_cell_volume   531.86871847
_cell_formula_units_Z   8
loop_
 _symmetry_equiv_pos_site_id
 _symmetry_equiv_pos_as_xyz
  1  'x, y, z'
loop_
 _atom_site_type_symbol
 _atom_site_label
 _atom_site_symmetry_multiplicity
 _atom_site_fract_x
 _atom_site_fract_y
 _atom_site_fract_z
 _atom_site_occupancy
  Li  Li0  1  0.49645279  0.00094957  0.12533801  1
  Li  Li1  1  0.00094325  0.49643125  0.87465571  1
  Li  Li2  1  -0.00353832  0.49903261  0.12467351  1
  Li  Li3  1  -0.00095482  0.50355346  0.37466254  1
  Li  Li4  1  0.00354571  0.50097333  0.62466500  1
  Li  Li5  1  0.50353914  -0.00093416  0.62533390  1
  Li  Li6  1  0.50097061  0.00353772  0.37533884  1
  Li  Li7  1  0.49905311  -0.00355809  0.87532469  1
  I  I8  1  0.25142373  0.75163219  0.49960559  1
  I  I9  1  0.75162165  0.25142681  0.50039585  1
  I  I10  1  0.75142297  0.74838115  0.75039593  1
  I  I11  1  0.24837104  0.74857826  0.00039549  1
  I  I12  1  0.24857436  0.25162376  0.25039143  1
  I  I13  1  0.74856935  0.24837489  -0.00039239  1
  I  I14  1  0.25162840  0.24857694  0.74961259  1
  I  I15  1  0.74837703  0.75142031  0.24960332  1
