# generated using pymatgen
data_LiI
_symmetry_space_group_name_H-M   'P 1'
_cell_length_a   7.22809128
_cell_length_b   7.22809130
_cell_length_c   9.14860401
_cell_angle_alpha   89.96221263
_cell_angle_beta   90.03775848
_cell_angle_gamma   119.99366395
_symmetry_Int_Tables_number   1
_chemical_formula_structural   LiI
_chemical_formula_sum   'Li6 I6'
_cell_volume   413.96184934
_cell_formula_units_Z   6
loop_
 _symmetry_equiv_pos_site_id
 _symmetry_equiv_pos_as_xyz
  1  'x, y, z'
loop_
 _atom_site_type_symbol
 _atom_site_label
 _atom_site_symmetry_multiplicity
 _atom_site_fract_x
 _atom_site_fract_y
 _atom_site_fract_z
 _atom_site_occupancy
  Li  Li0  1  0.56185487  0.25677616  0.15842094  1
  Li  Li1  1  0.43804776  0.69472338  0.50799736  1
  Li  Li2  1  0.69472369  0.43804771  0.49200235  1
  Li  Li3  1  0.30519742  0.74334849  0.17471456  1
  Li  Li4  1  0.74334868  0.30519812  0.82528557  1
  Li  Li5  1  0.25677645  0.56185519  0.84157905  1
  I  I6  1  0.36733484  0.01641666  0.40929086  1
  I  I7  1  0.63269991  0.64906726  0.25715340  1
  I  I8  1  0.64906783  0.63270061  0.74284620  1
  I  I9  1  0.35090184  0.98363010  -0.07618338  1
  I  I10  1  0.98362994  0.35090169  0.07618361  1
  I  I11  1  0.01641678  0.36733464  0.59070948  1
