# generated using pymatgen
data_KI
_symmetry_space_group_name_H-M   'P 1'
_cell_length_a   8.60237216
_cell_length_b   8.68851996
_cell_length_c   4.97689858
_cell_angle_alpha   89.99999868
_cell_angle_beta   89.99997275
_cell_angle_gamma   90.00000793
_symmetry_Int_Tables_number   1
_chemical_formula_structural   KI
_chemical_formula_sum   'K4 I4'
_cell_volume   371.98276708
_cell_formula_units_Z   4
loop_
 _symmetry_equiv_pos_site_id
 _symmetry_equiv_pos_as_xyz
  1  'x, y, z'
loop_
 _atom_site_type_symbol
 _atom_site_label
 _atom_site_symmetry_multiplicity
 _atom_site_fract_x
 _atom_site_fract_y
 _atom_site_fract_z
 _atom_site_occupancy
  K  K0  1  0.00031957  0.00094859  0.24972945  1
  K  K1  1  -0.00031959  0.50094843  0.25027049  1
  K  K2  1  0.49968038  -0.00094857  0.74972993  1
  K  K3  1  0.50031965  0.49905157  0.75027009  1
  I  I4  1  0.33287561  0.75005364  0.24995083  1
  I  I5  1  0.66712434  0.25005357  0.25004925  1
  I  I6  1  0.16712439  0.24994635  0.74995011  1
  I  I7  1  0.83287566  0.74994641  0.75004986  1
