# generated using pymatgen
data_LiBr
_symmetry_space_group_name_H-M   'P 1'
_cell_length_a   4.17998472
_cell_length_b   4.18002540
_cell_length_c   10.08697274
_cell_angle_alpha   90.00059348
_cell_angle_beta   90.00059779
_cell_angle_gamma   120.00055705
_symmetry_Int_Tables_number   1
_chemical_formula_structural   LiBr
_chemical_formula_sum   'Li3 Br3'
_cell_volume   152.63096717
_cell_formula_units_Z   3
loop_
 _symmetry_equiv_pos_site_id
 _symmetry_equiv_pos_as_xyz
  1  'x, y, z'
loop_
 _atom_site_type_symbol
 _atom_site_label
 _atom_site_symmetry_multiplicity
 _atom_site_fract_x
 _atom_site_fract_y
 _atom_site_fract_z
 _atom_site_occupancy
  Li  Li0  1  -0.00053065  0.66708786  0.76813255  1
  Li  Li1  1  0.33291143  0.33237284  0.43482483  1
  Li  Li2  1  0.66762042  0.00053939  0.10148612  1
  Br  Br3  1  0.66685910  0.00132484  0.84971479  1
  Br  Br4  1  -0.00132823  0.66553008  0.51638710  1
  Br  Br5  1  0.33446792  0.33314500  0.18304311  1
