# generated using pymatgen
data_LiBr
_symmetry_space_group_name_H-M   'P 1'
_cell_length_a   3.89161310
_cell_length_b   3.89161283
_cell_length_c   11.01448248
_cell_angle_alpha   89.99995033
_cell_angle_beta   89.99990323
_cell_angle_gamma   90.00001125
_symmetry_Int_Tables_number   1
_chemical_formula_structural   LiBr
_chemical_formula_sum   'Li4 Br4'
_cell_volume   166.81049818
_cell_formula_units_Z   4
loop_
 _symmetry_equiv_pos_site_id
 _symmetry_equiv_pos_as_xyz
  1  'x, y, z'
loop_
 _atom_site_type_symbol
 _atom_site_label
 _atom_site_symmetry_multiplicity
 _atom_site_fract_x
 _atom_site_fract_y
 _atom_site_fract_z
 _atom_site_occupancy
  Li  Li0  1  0.00347551  0.50481084  0.22547074  1
  Li  Li1  1  0.50481161  -0.00347883  0.97547124  1
  Li  Li2  1  -0.00347640  0.49519152  0.72547158  1
  Li  Li3  1  0.49519060  0.00347717  0.47547151  1
  Br  Br4  1  -0.00157238  0.50229900  0.47638832  1
  Br  Br5  1  0.50229840  0.00157141  0.22638813  1
  Br  Br6  1  0.00157160  0.49770034  -0.02361197  1
  Br  Br7  1  0.49770107  -0.00157144  0.72638821  1
