# generated using pymatgen
data_LiBr
_symmetry_space_group_name_H-M   'P 1'
_cell_length_a   11.02581383
_cell_length_b   11.02542509
_cell_length_c   7.16553082
_cell_angle_alpha   89.99998275
_cell_angle_beta   89.99995420
_cell_angle_gamma   89.99970654
_symmetry_Int_Tables_number   1
_chemical_formula_structural   LiBr
_chemical_formula_sum   'Li16 Br16'
_cell_volume   871.07262608
_cell_formula_units_Z   16
loop_
 _symmetry_equiv_pos_site_id
 _symmetry_equiv_pos_as_xyz
  1  'x, y, z'
loop_
 _atom_site_type_symbol
 _atom_site_label
 _atom_site_symmetry_multiplicity
 _atom_site_fract_x
 _atom_site_fract_y
 _atom_site_fract_z
 _atom_site_occupancy
  Li  Li0  1  0.44465411  0.12566009  0.07237661  1
  Li  Li1  1  0.62564025  0.44447284  0.32214556  1
  Li  Li2  1  0.55534380  0.12565930  0.57237829  1
  Li  Li3  1  0.55534557  0.87433977  0.07237738  1
  Li  Li4  1  0.37435997  0.55552579  0.32214632  1
  Li  Li5  1  0.87436003  0.94447403  0.32214408  1
  Li  Li6  1  0.12563962  0.05552622  0.32214514  1
  Li  Li7  1  0.37436032  0.44447476  0.82214560  1
  Li  Li8  1  0.62563989  0.55552571  0.82214585  1
  Li  Li9  1  0.05534503  0.37434039  0.57237736  1
  Li  Li10  1  0.87436026  0.05552816  0.82214461  1
  Li  Li11  1  0.94465445  0.62566036  0.57237642  1
  Li  Li12  1  0.12563996  0.94447238  0.82214416  1
  Li  Li13  1  0.05534490  0.62565974  0.07237680  1
  Li  Li14  1  0.94465579  0.37434056  0.07237650  1
  Li  Li15  1  0.44465576  0.87433989  0.57237638  1
  Br  Br16  1  0.55664735  0.64916719  0.13690273  1
  Br  Br17  1  0.14920826  0.55659384  0.38689057  1
  Br  Br18  1  0.44335176  0.64916772  0.63690228  1
  Br  Br19  1  0.44335265  0.35083253  0.13690220  1
  Br  Br20  1  0.85079181  0.44340657  0.38688997  1
  Br  Br21  1  0.35079133  0.05659414  0.38688960  1
  Br  Br22  1  0.64920843  0.94340513  0.38689087  1
  Br  Br23  1  0.85079134  0.55659418  0.88688940  1
  Br  Br24  1  0.14920890  0.44340585  0.88689028  1
  Br  Br25  1  0.94335276  0.85083277  0.63690097  1
  Br  Br26  1  0.35079188  0.94340698  0.88688941  1
  Br  Br27  1  0.05664754  0.14916801  0.63690183  1
  Br  Br28  1  0.64920846  0.05659310  0.88689089  1
  Br  Br29  1  0.94335195  0.14916814  0.13690193  1
  Br  Br30  1  0.05664786  0.85083211  0.13690105  1
  Br  Br31  1  0.55664802  0.35083175  0.63690175  1
