# generated using pymatgen
data_KI
_symmetry_space_group_name_H-M   'P 1'
_cell_length_a   9.70577881
_cell_length_b   4.53433427
_cell_length_c   8.47942045
_cell_angle_alpha   90.00025768
_cell_angle_beta   89.99989891
_cell_angle_gamma   89.99986687
_symmetry_Int_Tables_number   1
_chemical_formula_structural   KI
_chemical_formula_sum   'K4 I4'
_cell_volume   373.17289583
_cell_formula_units_Z   4
loop_
 _symmetry_equiv_pos_site_id
 _symmetry_equiv_pos_as_xyz
  1  'x, y, z'
loop_
 _atom_site_type_symbol
 _atom_site_label
 _atom_site_symmetry_multiplicity
 _atom_site_fract_x
 _atom_site_fract_y
 _atom_site_fract_z
 _atom_site_occupancy
  K  K0  1  0.87536050  -0.00010934  0.74005073  1
  K  K1  1  0.37535940  0.00010983  0.74004963  1
  K  K2  1  0.12463952  0.00010940  0.24005047  1
  K  K3  1  0.62464098  -0.00010895  0.24004988  1
  I  I4  1  0.37492813  0.49896553  0.40871006  1
  I  I5  1  0.87492794  0.50103458  0.40870923  1
  I  I6  1  0.62507199  0.50103442  0.90870983  1
  I  I7  1  0.12507154  0.49896453  0.90870992  1
