# generated using pymatgen
data_NaI
_symmetry_space_group_name_H-M   'P 1'
_cell_length_a   9.24603150
_cell_length_b   9.24603186
_cell_length_c   13.02737227
_cell_angle_alpha   90.00000890
_cell_angle_beta   90.00000764
_cell_angle_gamma   90.00015304
_symmetry_Int_Tables_number   1
_chemical_formula_structural   NaI
_chemical_formula_sum   'Na16 I16'
_cell_volume   1113.69835495
_cell_formula_units_Z   16
loop_
 _symmetry_equiv_pos_site_id
 _symmetry_equiv_pos_as_xyz
  1  'x, y, z'
loop_
 _atom_site_type_symbol
 _atom_site_label
 _atom_site_symmetry_multiplicity
 _atom_site_fract_x
 _atom_site_fract_y
 _atom_site_fract_z
 _atom_site_occupancy
  Na  Na0  1  -0.00125815  0.74920149  0.12534205  1
  Na  Na1  1  0.74920162  0.00125846  0.87465794  1
  Na  Na2  1  -0.00125894  0.25079864  0.62534201  1
  Na  Na3  1  0.24920119  0.50125905  0.37465792  1
  Na  Na4  1  0.49874186  0.75079837  0.12534212  1
  Na  Na5  1  0.75079814  0.49874125  0.37465863  1
  Na  Na6  1  0.49874131  0.24920180  0.62534213  1
  Na  Na7  1  0.50125781  0.75079851  0.62534111  1
  Na  Na8  1  0.75079867  0.50125810  0.87465793  1
  Na  Na9  1  0.50125903  0.24920099  0.12534145  1
  Na  Na10  1  0.24920186  0.49874181  0.87465888  1
  Na  Na11  1  0.00125844  0.25079834  0.12534108  1
  Na  Na12  1  0.25079895  -0.00125906  0.87465870  1
  Na  Na13  1  0.25079811  0.00125839  0.37465790  1
  Na  Na14  1  0.00125853  0.74920157  0.62534142  1
  Na  Na15  1  0.74920159  -0.00125776  0.37465893  1
  I  I16  1  0.50069033  0.25024341  0.87508875  1
  I  I17  1  0.25024368  0.49931002  0.12491114  1
  I  I18  1  0.50068990  0.74975678  0.37508885  1
  I  I19  1  0.75024320  -0.00068988  0.62491117  1
  I  I20  1  0.00069017  0.24975642  0.87508877  1
  I  I21  1  0.24975644  0.00069011  0.62491135  1
  I  I22  1  0.00068996  0.75024370  0.37508875  1
  I  I23  1  -0.00069028  0.24975677  0.37508885  1
  I  I24  1  0.24975667  -0.00069040  0.12491125  1
  I  I25  1  -0.00068985  0.75024324  0.87508867  1
  I  I26  1  0.75024365  0.00069002  0.12491105  1
  I  I27  1  0.49931012  0.74975640  0.87508895  1
  I  I28  1  0.74975684  0.50068978  0.12491135  1
  I  I29  1  0.74975622  0.49930985  0.62491126  1
  I  I30  1  0.49930972  0.25024350  0.37508863  1
  I  I31  1  0.25024320  0.50069032  0.62491102  1
