# generated using pymatgen
data_LiBr
_symmetry_space_group_name_H-M   'P 1'
_cell_length_a   11.09725419
_cell_length_b   11.09701713
_cell_length_c   9.55469546
_cell_angle_alpha   90.00267750
_cell_angle_beta   89.99771946
_cell_angle_gamma   120.00037613
_symmetry_Int_Tables_number   1
_chemical_formula_structural   LiBr
_chemical_formula_sum   'Li18 Br18'
_cell_volume   1018.98460899
_cell_formula_units_Z   18
loop_
 _symmetry_equiv_pos_site_id
 _symmetry_equiv_pos_as_xyz
  1  'x, y, z'
loop_
 _atom_site_type_symbol
 _atom_site_label
 _atom_site_symmetry_multiplicity
 _atom_site_fract_x
 _atom_site_fract_y
 _atom_site_fract_z
 _atom_site_occupancy
  Li  Li0  1  0.42309393  0.33257835  0.08195674  1
  Li  Li1  1  0.75717539  0.75643251  0.25138045  1
  Li  Li2  1  0.57690605  0.66742050  0.91804395  1
  Li  Li3  1  0.90949267  0.57690246  0.08195268  1
  Li  Li4  1  -0.00074712  0.24282524  0.25137396  1
  Li  Li5  1  0.33258356  0.90948853  0.91803908  1
  Li  Li6  1  0.33408352  0.42384375  0.41529442  1
  Li  Li7  1  0.66741675  0.09050964  0.08195975  1
  Li  Li8  1  0.09050667  0.42309797  0.91804683  1
  Li  Li9  1  0.66591795  0.57615649  0.58470658  1
  Li  Li10  1  0.00075046  0.75717793  0.74862711  1
  Li  Li11  1  0.57615938  0.91023614  0.41528606  1
  Li  Li12  1  0.42384117  0.08976706  0.58471499  1
  Li  Li13  1  0.24282593  0.24356829  0.74861854  1
  Li  Li14  1  0.08975924  0.66591095  0.41528991  1
  Li  Li15  1  0.91023860  0.33408728  0.58471007  1
  Li  Li16  1  0.24357234  0.00075448  0.25137677  1
  Li  Li17  1  0.75642737  -0.00075452  0.74862293  1
  Br  Br18  1  0.21549085  0.00090640  0.75184826  1
  Br  Br19  1  0.88124405  0.54880845  0.58148807  1
  Br  Br20  1  0.78450782  -0.00090617  0.24815160  1
  Br  Br21  1  0.78542098  0.78452480  0.75184304  1
  Br  Br22  1  0.66756064  0.11874697  0.58148944  1
  Br  Br23  1  0.00089515  0.78541530  0.24815545  1
  Br  Br24  1  0.66577184  0.54791767  0.08517765  1
  Br  Br25  1  -0.00089462  0.21458632  0.75184394  1
  Br  Br26  1  0.21457858  0.21547474  0.24815756  1
  Br  Br27  1  0.33422833  0.45208302  0.91482320  1
  Br  Br28  1  0.33243747  0.88124963  0.41850951  1
  Br  Br29  1  0.45208903  0.11785878  0.08517717  1
  Br  Br30  1  0.54791283  0.88214235  0.91482361  1
  Br  Br31  1  0.11875305  0.45118990  0.41851124  1
  Br  Br32  1  0.88215978  0.33424024  0.08518101  1
  Br  Br33  1  0.11784122  0.66576094  0.91481881  1
  Br  Br34  1  0.45117477  0.33242635  0.58148598  1
  Br  Br35  1  0.54882439  0.66757127  0.41851363  1
