# generated using pymatgen
data_NaI
_symmetry_space_group_name_H-M   'P 1'
_cell_length_a   6.51873966
_cell_length_b   9.59450992
_cell_length_c   5.40418044
_cell_angle_alpha   90.00285809
_cell_angle_beta   90.01826996
_cell_angle_gamma   90.00277761
_symmetry_Int_Tables_number   1
_chemical_formula_structural   NaI
_chemical_formula_sum   'Na4 I4'
_cell_volume   337.99965077
_cell_formula_units_Z   4
loop_
 _symmetry_equiv_pos_site_id
 _symmetry_equiv_pos_as_xyz
  1  'x, y, z'
loop_
 _atom_site_type_symbol
 _atom_site_label
 _atom_site_symmetry_multiplicity
 _atom_site_fract_x
 _atom_site_fract_y
 _atom_site_fract_z
 _atom_site_occupancy
  Na  Na0  1  0.75063360  0.41569248  0.69853775  1
  Na  Na1  1  0.25063247  0.08431109  0.69855694  1
  Na  Na2  1  0.24936869  0.58431330  0.19858101  1
  Na  Na3  1  0.74937010  0.91568676  0.19856098  1
  I  I4  1  0.74905668  0.58605237  0.20006413  1
  I  I5  1  0.24905583  0.91394665  0.20008216  1
  I  I6  1  0.25094150  0.41393944  0.70019946  1
  I  I7  1  0.75094113  0.08605791  0.70018049  1
