# generated using pymatgen
data_NaI
_symmetry_space_group_name_H-M   'P 1'
_cell_length_a   20.48840855
_cell_length_b   8.82260469
_cell_length_c   8.83168209
_cell_angle_alpha   90.00001862
_cell_angle_beta   90.00436992
_cell_angle_gamma   90.00008570
_symmetry_Int_Tables_number   1
_chemical_formula_structural   NaI
_chemical_formula_sum   'Na16 I16'
_cell_volume   1596.42482321
_cell_formula_units_Z   16
loop_
 _symmetry_equiv_pos_site_id
 _symmetry_equiv_pos_as_xyz
  1  'x, y, z'
loop_
 _atom_site_type_symbol
 _atom_site_label
 _atom_site_symmetry_multiplicity
 _atom_site_fract_x
 _atom_site_fract_y
 _atom_site_fract_z
 _atom_site_occupancy
  Na  Na0  1  0.12502404  -0.00012094  0.24900306  1
  Na  Na1  1  0.87497598  0.00012100  0.24898473  1
  Na  Na2  1  0.12502402  0.50012103  0.25101641  1
  Na  Na3  1  0.37497585  0.00012113  0.74898478  1
  Na  Na4  1  0.62502394  0.50012099  0.75101648  1
  Na  Na5  1  0.37497584  -0.00012113  0.25099580  1
  Na  Na6  1  0.62502397  -0.00012099  0.74900296  1
  Na  Na7  1  0.62502395  0.00012099  0.25101649  1
  Na  Na8  1  0.37497583  0.49987888  0.75099579  1
  Na  Na9  1  0.62502394  0.49987903  0.24900294  1
  Na  Na10  1  0.37497583  0.50012112  0.24898477  1
  Na  Na11  1  0.12502403  0.00012104  0.75101639  1
  Na  Na12  1  0.87497599  -0.00012106  0.75099579  1
  Na  Na13  1  0.87497598  0.49987894  0.25099580  1
  Na  Na14  1  0.12502404  0.49987906  0.74900307  1
  Na  Na15  1  0.87497599  0.50012101  0.74898473  1
  I  I16  1  0.12462512  0.75075211  0.50009471  1
  I  I17  1  0.87537519  0.24924896  0.50007558  1
  I  I18  1  0.12462494  0.74924796  -0.00007542  1
  I  I19  1  0.37537514  0.24924897  0.00007564  1
  I  I20  1  0.62462494  0.74924787  0.49992455  1
  I  I21  1  0.37537497  0.75075100  -0.00009489  1
  I  I22  1  0.62462512  0.75075211  0.00009472  1
  I  I23  1  0.62462491  0.24924788  -0.00007546  1
  I  I24  1  0.37537494  0.25075101  0.49990510  1
  I  I25  1  0.62462509  0.25075210  0.50009471  1
  I  I26  1  0.37537516  0.74924897  0.50007565  1
  I  I27  1  0.12462496  0.24924796  0.49992459  1
  I  I28  1  0.87537497  0.75075097  0.49990511  1
  I  I29  1  0.87537500  0.25075096  -0.00009488  1
  I  I30  1  0.12462515  0.25075212  0.00009471  1
  I  I31  1  0.87537517  0.74924895  0.00007558  1
