# generated using pymatgen
data_LiBr
_symmetry_space_group_name_H-M   'P 1'
_cell_length_a   6.61026529
_cell_length_b   6.61009646
_cell_length_c   3.95636413
_cell_angle_alpha   89.99318123
_cell_angle_beta   90.00685418
_cell_angle_gamma   120.00608196
_symmetry_Int_Tables_number   1
_chemical_formula_structural   LiBr
_chemical_formula_sum   'Li3 Br3'
_cell_volume   149.70177497
_cell_formula_units_Z   3
loop_
 _symmetry_equiv_pos_site_id
 _symmetry_equiv_pos_as_xyz
  1  'x, y, z'
loop_
 _atom_site_type_symbol
 _atom_site_label
 _atom_site_symmetry_multiplicity
 _atom_site_fract_x
 _atom_site_fract_y
 _atom_site_fract_z
 _atom_site_occupancy
  Li  Li0  1  0.60833481  0.60855377  0.54717728  1
  Li  Li1  1  0.39148790  -0.00018983  0.88048144  1
  Li  Li2  1  0.00022600  0.39169657  0.21385995  1
  Br  Br3  1  0.64255436  0.00012602  0.38023852  1
  Br  Br4  1  -0.00016374  0.64237964  0.71362938  1
  Br  Br5  1  0.35756067  0.35743382  0.04697299  1
