# generated using pymatgen
data_NaI
_symmetry_space_group_name_H-M   'P 1'
_cell_length_a   17.50337236
_cell_length_b   5.08021642
_cell_length_c   17.38898614
_cell_angle_alpha   90.00249438
_cell_angle_beta   90.04425152
_cell_angle_gamma   89.99969439
_symmetry_Int_Tables_number   1
_chemical_formula_structural   NaI
_chemical_formula_sum   'Na16 I16'
_cell_volume   1546.24417530
_cell_formula_units_Z   16
loop_
 _symmetry_equiv_pos_site_id
 _symmetry_equiv_pos_as_xyz
  1  'x, y, z'
loop_
 _atom_site_type_symbol
 _atom_site_label
 _atom_site_symmetry_multiplicity
 _atom_site_fract_x
 _atom_site_fract_y
 _atom_site_fract_z
 _atom_site_occupancy
  Na  Na0  1  0.60812165  0.25722689  0.30969286  1
  Na  Na1  1  0.39204931  0.74278138  0.30971978  1
  Na  Na2  1  0.64191569  0.50719971  0.55970272  1
  Na  Na3  1  0.89204881  0.74278400  0.80971979  1
  Na  Na4  1  0.14191253  0.50720216  0.05970245  1
  Na  Na5  1  0.85798984  -0.00724877  0.55971063  1
  Na  Na6  1  0.10811824  0.25722586  0.80969299  1
  Na  Na7  1  0.14191410  0.00720039  0.55970259  1
  Na  Na8  1  0.85798747  0.49275398  0.05971074  1
  Na  Na9  1  0.10812025  0.75722586  0.30969312  1
  Na  Na10  1  0.89205210  0.24278343  0.30971960  1
  Na  Na11  1  0.64191604  0.00719874  0.05970261  1
  Na  Na12  1  0.35799362  -0.00725250  0.05971069  1
  Na  Na13  1  0.35799259  0.49274731  0.55971058  1
  Na  Na14  1  0.60811942  0.75722479  0.80969321  1
  Na  Na15  1  0.39204565  0.24277953  0.80971944  1
  I  I16  1  0.39054320  0.74567966  0.90287219  1
  I  I17  1  0.60928072  0.25437970  0.90281161  1
  I  I18  1  0.85942099  -0.00435956  0.15285441  1
  I  I19  1  0.10927239  0.25438059  0.40281042  1
  I  I20  1  0.35942057  -0.00436454  0.65285372  1
  I  I21  1  0.64069032  0.50434293  0.15283366  1
  I  I22  1  0.89053961  0.74568122  0.40287305  1
  I  I23  1  0.35942341  0.49563680  0.15285455  1
  I  I24  1  0.64068860  0.00434265  0.65283456  1
  I  I25  1  0.89054083  0.24568286  0.90287371  1
  I  I26  1  0.10927490  0.75438157  0.90280969  1
  I  I27  1  0.85942124  0.49563871  0.65285433  1
  I  I28  1  0.14068474  0.50434178  0.65283478  1
  I  I29  1  0.14068392  0.00434323  0.15283478  1
  I  I30  1  0.39054008  0.24567967  0.40287271  1
  I  I31  1  0.60927716  0.75437997  0.40281100  1
