# generated using pymatgen
data_LiBr
_symmetry_space_group_name_H-M   'P 1'
_cell_length_a   11.59214721
_cell_length_b   11.59214698
_cell_length_c   7.67919812
_cell_angle_alpha   89.99876613
_cell_angle_beta   90.00121762
_cell_angle_gamma   120.00058492
_symmetry_Int_Tables_number   1
_chemical_formula_structural   LiBr
_chemical_formula_sum   'Li18 Br18'
_cell_volume   893.65874734
_cell_formula_units_Z   18
loop_
 _symmetry_equiv_pos_site_id
 _symmetry_equiv_pos_as_xyz
  1  'x, y, z'
loop_
 _atom_site_type_symbol
 _atom_site_label
 _atom_site_symmetry_multiplicity
 _atom_site_fract_x
 _atom_site_fract_y
 _atom_site_fract_z
 _atom_site_occupancy
  Li  Li0  1  0.46126618  0.53656381  0.02407511  1
  Li  Li1  1  0.46127084  0.92470398  0.52409050  1
  Li  Li2  1  0.79659053  0.20541831  0.18931031  1
  Li  Li3  1  0.40881264  0.20340142  0.18931858  1
  Li  Li4  1  0.13006755  0.25791629  0.35679747  1
  Li  Li5  1  0.46342603  0.92468602  0.02408921  1
  Li  Li6  1  0.40881107  0.20540806  0.68932811  1
  Li  Li7  1  0.79660081  0.59118738  0.68932547  1
  Li  Li8  1  0.07529519  0.53873104  0.02409512  1
  Li  Li9  1  0.07531204  0.53657261  0.52409026  1
  Li  Li10  1  0.79458200  0.20341098  0.68930926  1
  Li  Li11  1  0.79459090  0.59119092  0.18933172  1
  Li  Li12  1  0.74208202  0.87214104  0.35681147  1
  Li  Li13  1  0.74208317  0.86993280  0.85679848  1
  Li  Li14  1  0.46343710  0.53873383  0.52407374  1
  Li  Li15  1  0.13005229  0.87212890  0.85679165  1
  Li  Li16  1  0.12786912  0.86994426  0.35679401  1
  Li  Li17  1  0.12785900  0.25792060  0.85681038  1
  Br  Br18  1  0.87962181  0.11907611  0.93148600  1
  Br  Br19  1  0.87962222  0.76055215  0.43150530  1
  Br  Br20  1  0.21430535  0.78706346  0.09879870  1
  Br  Br21  1  0.57275114  0.78568022  0.09882233  1
  Br  Br22  1  0.54757534  0.09396215  0.26560655  1
  Br  Br23  1  0.88093829  0.76056172  0.93153177  1
  Br  Br24  1  0.57276506  0.78707710  0.59880134  1
  Br  Br25  1  0.21432134  0.42724823  0.59882085  1
  Br  Br26  1  0.23944718  0.12037925  0.93149985  1
  Br  Br27  1  0.23943974  0.11906069  0.43152747  1
  Br  Br28  1  0.21294034  0.78569573  0.59879658  1
  Br  Br29  1  0.21292145  0.42723300  0.09880019  1
  Br  Br30  1  0.90604167  0.45361510  0.26559548  1
  Br  Br31  1  0.90604086  0.45242377  0.76561221  1
  Br  Br32  1  0.88092472  0.12037954  0.43148646  1
  Br  Br33  1  0.54756752  0.45361208  0.76558390  1
  Br  Br34  1  0.54638414  0.45243044  0.26558505  1
  Br  Br35  1  0.54638338  0.09395700  0.76559219  1
