# generated using pymatgen
data_LiI
_symmetry_space_group_name_H-M   'P 1'
_cell_length_a   7.91520301
_cell_length_b   7.91521590
_cell_length_c   4.24377725
_cell_angle_alpha   90.00003659
_cell_angle_beta   89.99999365
_cell_angle_gamma   90.00007747
_symmetry_Int_Tables_number   1
_chemical_formula_structural   LiI
_chemical_formula_sum   'Li4 I4'
_cell_volume   265.87493951
_cell_formula_units_Z   4
loop_
 _symmetry_equiv_pos_site_id
 _symmetry_equiv_pos_as_xyz
  1  'x, y, z'
loop_
 _atom_site_type_symbol
 _atom_site_label
 _atom_site_symmetry_multiplicity
 _atom_site_fract_x
 _atom_site_fract_y
 _atom_site_fract_z
 _atom_site_occupancy
  Li  Li0  1  0.66366136  0.83695422  0.07420586  1
  Li  Li1  1  0.83695323  0.33633979  0.32420533  1
  Li  Li2  1  0.33633866  0.16304586  0.57420478  1
  Li  Li3  1  0.16304689  0.66366013  0.82420373  1
  I  I4  1  0.17045139  0.32947242  0.07357836  1
  I  I5  1  0.32947249  0.82954829  0.32357764  1
  I  I6  1  0.82954855  0.67052763  0.57357897  1
  I  I7  1  0.67052743  0.17045167  0.82357822  1
