# generated using pymatgen
data_LiBr
_symmetry_space_group_name_H-M   'P 1'
_cell_length_a   7.86689797
_cell_length_b   7.86700187
_cell_length_c   14.47762981
_cell_angle_alpha   89.99972049
_cell_angle_beta   89.99982316
_cell_angle_gamma   89.99990360
_symmetry_Int_Tables_number   1
_chemical_formula_structural   LiBr
_chemical_formula_sum   'Li16 Br16'
_cell_volume   896.00459799
_cell_formula_units_Z   16
loop_
 _symmetry_equiv_pos_site_id
 _symmetry_equiv_pos_as_xyz
  1  'x, y, z'
loop_
 _atom_site_type_symbol
 _atom_site_label
 _atom_site_symmetry_multiplicity
 _atom_site_fract_x
 _atom_site_fract_y
 _atom_site_fract_z
 _atom_site_occupancy
  Li  Li0  1  0.35560404  0.83862183  0.55403898  1
  Li  Li1  1  0.66137530  0.85560773  0.94596056  1
  Li  Li2  1  0.35560940  0.33863228  0.69596170  1
  Li  Li3  1  0.64439008  0.16137500  0.55403882  1
  Li  Li4  1  0.33862927  0.14439047  0.94595950  1
  Li  Li5  1  0.16136758  0.85560693  0.80403892  1
  Li  Li6  1  0.83862524  0.14439079  0.80403639  1
  Li  Li7  1  0.66137574  0.35560972  0.30403746  1
  Li  Li8  1  0.33863112  0.64439243  0.30403837  1
  Li  Li9  1  0.14439887  0.66137804  0.05403963  1
  Li  Li10  1  0.83862742  0.64439003  0.44596040  1
  Li  Li11  1  0.85561159  0.33862304  0.05403751  1
  Li  Li12  1  0.16136771  0.35561036  0.44596114  1
  Li  Li13  1  0.85561798  0.83863211  0.19596039  1
  Li  Li14  1  0.14438960  0.16136980  0.19596246  1
  Li  Li15  1  0.64437923  0.66136662  0.69596080  1
  Br  Br16  1  0.81747782  0.16004856  0.19798850  1
  Br  Br17  1  0.33996612  0.31747631  0.30201256  1
  Br  Br18  1  0.81748011  0.66004260  0.05200757  1
  Br  Br19  1  0.18253062  0.83995374  0.19798850  1
  Br  Br20  1  0.66003649  0.68252289  0.30201220  1
  Br  Br21  1  0.83995009  0.31746988  0.44799260  1
  Br  Br22  1  0.16004494  0.68253188  0.44799018  1
  Br  Br23  1  0.33995582  0.81746772  0.94799026  1
  Br  Br24  1  0.66005041  0.18253140  0.94799385  1
  Br  Br25  1  0.68251857  0.33995370  0.69798869  1
  Br  Br26  1  0.16003262  0.18252041  0.80201457  1
  Br  Br27  1  0.31746995  0.66004581  0.69798679  1
  Br  Br28  1  0.83996334  0.81748061  0.80201415  1
  Br  Br29  1  0.31747301  0.16003819  0.55200853  1
  Br  Br30  1  0.68251979  0.83996021  0.55200824  1
  Br  Br31  1  0.18253014  0.33995891  0.05200977  1
