# generated using pymatgen
data_LiI
_symmetry_space_group_name_H-M   'P 1'
_cell_length_a   7.41957223
_cell_length_b   7.42016613
_cell_length_c   9.78443912
_cell_angle_alpha   90.00000228
_cell_angle_beta   89.99998729
_cell_angle_gamma   120.00604761
_symmetry_Int_Tables_number   1
_chemical_formula_structural   LiI
_chemical_formula_sum   'Li6 I6'
_cell_volume   466.47953309
_cell_formula_units_Z   6
loop_
 _symmetry_equiv_pos_site_id
 _symmetry_equiv_pos_as_xyz
  1  'x, y, z'
loop_
 _atom_site_type_symbol
 _atom_site_label
 _atom_site_symmetry_multiplicity
 _atom_site_fract_x
 _atom_site_fract_y
 _atom_site_fract_z
 _atom_site_occupancy
  Li  Li0  1  0.79643791  0.39430548  0.19658341  1
  Li  Li1  1  0.40216368  0.79639649  0.02971526  1
  Li  Li2  1  0.59783764  0.20360422  0.52971517  1
  Li  Li3  1  0.39427437  0.59800504  0.36336240  1
  Li  Li4  1  0.60572505  0.40199375  0.86336236  1
  Li  Li5  1  0.20356175  0.60569507  0.69658355  1
  I  I6  1  0.99698289  0.50443049  0.44763470  1
  I  I7  1  0.49262055  0.99697648  0.28084101  1
  I  I8  1  0.50738122  0.00302303  0.78084055  1
  I  I9  1  0.50430471  0.50727790  0.61438068  1
  I  I10  1  0.49569269  0.49271991  0.11438015  1
  I  I11  1  0.00301754  0.49557216  0.94763500  1
