# generated using pymatgen
data_LiI
_symmetry_space_group_name_H-M   'P 1'
_cell_length_a   13.03351588
_cell_length_b   13.03351567
_cell_length_c   7.97384589
_cell_angle_alpha   90.00166856
_cell_angle_beta   89.99833115
_cell_angle_gamma   120.00329200
_symmetry_Int_Tables_number   1
_chemical_formula_structural   LiI
_chemical_formula_sum   'Li18 I18'
_cell_volume   1173.02488562
_cell_formula_units_Z   18
loop_
 _symmetry_equiv_pos_site_id
 _symmetry_equiv_pos_as_xyz
  1  'x, y, z'
loop_
 _atom_site_type_symbol
 _atom_site_label
 _atom_site_symmetry_multiplicity
 _atom_site_fract_x
 _atom_site_fract_y
 _atom_site_fract_z
 _atom_site_occupancy
  Li  Li0  1  0.04187453  0.20875024  0.35271008  1
  Li  Li1  1  0.04187028  0.83312012  0.85269644  1
  Li  Li2  1  0.12461757  0.62475265  0.51952111  1
  Li  Li3  1  0.50014518  0.87538997  0.51952324  1
  Li  Li4  1  0.45793078  0.16661436  0.68634664  1
  Li  Li5  1  0.79125119  0.83311684  0.35270820  1
  Li  Li6  1  0.50013163  0.62475118  0.01951817  1
  Li  Li7  1  0.12460970  0.49985473  0.01952366  1
  Li  Li8  1  0.16687953  0.95812916  0.35269734  1
  Li  Li9  1  0.16688240  0.20874866  0.85271058  1
  Li  Li10  1  0.37524697  0.87538286  0.01952115  1
  Li  Li11  1  0.37524677  0.49986770  0.51951964  1
  Li  Li12  1  0.83338456  0.29131929  0.68634373  1
  Li  Li13  1  0.83338597  0.54207051  0.18634751  1
  Li  Li14  1  0.79124966  0.95812589  0.85270919  1
  Li  Li15  1  0.45793337  0.29131292  0.18635315  1
  Li  Li16  1  0.70868752  0.54206726  0.68635277  1
  Li  Li17  1  0.70868090  0.16661542  0.18634323  1
  I  I18  1  0.95843177  0.16673525  0.68674511  1
  I  I19  1  0.95843590  0.79169893  0.18673437  1
  I  I20  1  0.16665859  0.70826836  0.85344350  1
  I  I21  1  0.54161154  0.83334544  0.85344216  1
  I  I22  1  0.50001903  0.12503446  0.02024951  1
  I  I23  1  0.83325890  0.79169483  0.68673852  1
  I  I24  1  0.54160976  0.70826946  0.35344035  1
  I  I25  1  0.16665430  0.45838781  0.35344286  1
  I  I26  1  0.20830141  0.04156444  0.68673574  1
  I  I27  1  0.20830554  0.16674103  0.18674059  1
  I  I28  1  0.29173150  0.83334124  0.35344365  1
  I  I29  1  0.29173028  0.45838985  0.85344139  1
  I  I30  1  0.87496031  0.37498487  0.02025171  1
  I  I31  1  0.87496601  0.49998151  0.52024988  1
  I  I32  1  0.83326512  0.04156808  0.18674452  1
  I  I33  1  0.50002718  0.37499181  0.52025472  1
  I  I34  1  0.62500853  0.49997326  0.02025441  1
  I  I35  1  0.62501579  0.12503962  0.52025115  1
