# generated using pymatgen
data_LiBr
_symmetry_space_group_name_H-M   'P 1'
_cell_length_a   7.80252676
_cell_length_b   7.80252673
_cell_length_c   10.96796184
_cell_angle_alpha   89.99998196
_cell_angle_beta   90.00001055
_cell_angle_gamma   89.99998213
_symmetry_Int_Tables_number   1
_chemical_formula_structural   LiBr
_chemical_formula_sum   'Li16 Br16'
_cell_volume   667.72319486
_cell_formula_units_Z   16
loop_
 _symmetry_equiv_pos_site_id
 _symmetry_equiv_pos_as_xyz
  1  'x, y, z'
loop_
 _atom_site_type_symbol
 _atom_site_label
 _atom_site_symmetry_multiplicity
 _atom_site_fract_x
 _atom_site_fract_y
 _atom_site_fract_z
 _atom_site_occupancy
  Li  Li0  1  0.00057606  0.25058623  0.87475635  1
  Li  Li1  1  0.25058508  -0.00057419  0.12524477  1
  Li  Li2  1  0.00057583  0.74941766  0.37475398  1
  Li  Li3  1  0.75058399  0.49942184  0.62524521  1
  Li  Li4  1  0.50057694  0.24941489  0.87475474  1
  Li  Li5  1  0.24941643  0.50057266  0.62524435  1
  Li  Li6  1  0.50057485  0.75058543  0.37475542  1
  Li  Li7  1  0.49942328  0.24941781  0.37475539  1
  Li  Li8  1  0.24941278  0.49942197  0.12524470  1
  Li  Li9  1  0.49942583  0.75058546  0.87475448  1
  Li  Li10  1  0.75058298  0.50057436  0.12524594  1
  Li  Li11  1  -0.00057647  0.74941572  0.87475531  1
  Li  Li12  1  0.74941539  0.00057770  0.12524541  1
  Li  Li13  1  0.74941647  -0.00057504  0.62524484  1
  Li  Li14  1  -0.00057526  0.25058368  0.37475531  1
  Li  Li15  1  0.25058450  0.00057728  0.62524390  1
  Br  Br16  1  0.74980208  0.50048916  0.87501877  1
  Br  Br17  1  0.50049037  0.25019820  0.12498129  1
  Br  Br18  1  0.74980097  0.49950741  0.37501719  1
  Br  Br19  1  0.00049211  0.75019995  0.62498143  1
  Br  Br20  1  0.24980117  -0.00049157  0.87501830  1
  Br  Br21  1  -0.00049052  0.24980205  0.62498270  1
  Br  Br22  1  0.24980099  0.00049133  0.37501672  1
  Br  Br23  1  0.75019765  -0.00049101  0.37501841  1
  Br  Br24  1  -0.00049171  0.75019917  0.12498219  1
  Br  Br25  1  0.75019953  0.00049087  0.87501780  1
  Br  Br26  1  0.00049058  0.24980240  0.12498311  1
  Br  Br27  1  0.25019952  0.49950734  0.87501690  1
  Br  Br28  1  0.49950772  0.74980133  0.12498225  1
  Br  Br29  1  0.49951031  0.25019834  0.62498110  1
  Br  Br30  1  0.25019800  0.50049034  0.37501891  1
  Br  Br31  1  0.50049255  0.74980124  0.62498282  1
