# generated using pymatgen
data_LiI
_symmetry_space_group_name_H-M   'P 1'
_cell_length_a   8.00007225
_cell_length_b   4.61265564
_cell_length_c   7.16830161
_cell_angle_alpha   90.00017426
_cell_angle_beta   89.99993213
_cell_angle_gamma   89.99995271
_symmetry_Int_Tables_number   1
_chemical_formula_structural   LiI
_chemical_formula_sum   'Li4 I4'
_cell_volume   264.52164347
_cell_formula_units_Z   4
loop_
 _symmetry_equiv_pos_site_id
 _symmetry_equiv_pos_as_xyz
  1  'x, y, z'
loop_
 _atom_site_type_symbol
 _atom_site_label
 _atom_site_symmetry_multiplicity
 _atom_site_fract_x
 _atom_site_fract_y
 _atom_site_fract_z
 _atom_site_occupancy
  Li  Li0  1  0.08042140  0.74882376  0.49838491  1
  Li  Li1  1  0.58042151  0.25117251  0.49838453  1
  Li  Li2  1  -0.08042178  0.25117437  -0.00161368  1
  Li  Li3  1  0.41957850  0.74882535  -0.00161376  1
  I  I4  1  0.58602423  0.24938400  0.11164252  1
  I  I5  1  0.08602418  0.75062054  0.11164262  1
  I  I6  1  0.41397599  0.75061810  0.61164265  1
  I  I7  1  0.91397596  0.24938136  0.61164254  1
