# generated using pymatgen
data_LiBr
_symmetry_space_group_name_H-M   'P 1'
_cell_length_a   9.76538244
_cell_length_b   9.76532261
_cell_length_c   3.87983498
_cell_angle_alpha   90.00008148
_cell_angle_beta   90.00004843
_cell_angle_gamma   120.00427249
_symmetry_Int_Tables_number   1
_chemical_formula_structural   LiBr
_chemical_formula_sum   'Li6 Br6'
_cell_volume   320.40629405
_cell_formula_units_Z   6
loop_
 _symmetry_equiv_pos_site_id
 _symmetry_equiv_pos_as_xyz
  1  'x, y, z'
loop_
 _atom_site_type_symbol
 _atom_site_label
 _atom_site_symmetry_multiplicity
 _atom_site_fract_x
 _atom_site_fract_y
 _atom_site_fract_z
 _atom_site_occupancy
  Li  Li0  1  0.44601515  0.13191700  0.31031127  1
  Li  Li1  1  0.31409350  0.44598942  0.47695981  1
  Li  Li2  1  0.68590654  0.55401039  -0.02303844  1
  Li  Li3  1  0.13189643  0.68589317  0.14358336  1
  Li  Li4  1  0.86810285  0.31410653  0.64358559  1
  Li  Li5  1  0.55398428  0.86808229  0.81031522  1
  Br  Br6  1  0.70168254  0.13299308  0.14554581  1
  Br  Br7  1  0.56870891  0.70169011  0.31230464  1
  Br  Br8  1  0.43129148  0.29831017  0.81230148  1
  Br  Br9  1  0.13299650  0.43131543  0.97892985  1
  Br  Br10  1  0.86700409  0.56868498  0.47893219  1
  Br  Br11  1  0.29831773  0.86700742  0.64554622  1
