# generated using pymatgen
data_LiI
_symmetry_space_group_name_H-M   'P 1'
_cell_length_a   9.14264480
_cell_length_b   8.00166127
_cell_length_c   7.56684794
_cell_angle_alpha   89.99931245
_cell_angle_beta   90.00031327
_cell_angle_gamma   90.00060881
_symmetry_Int_Tables_number   1
_chemical_formula_structural   LiI
_chemical_formula_sum   'Li8 I8'
_cell_volume   553.56295211
_cell_formula_units_Z   8
loop_
 _symmetry_equiv_pos_site_id
 _symmetry_equiv_pos_as_xyz
  1  'x, y, z'
loop_
 _atom_site_type_symbol
 _atom_site_label
 _atom_site_symmetry_multiplicity
 _atom_site_fract_x
 _atom_site_fract_y
 _atom_site_fract_z
 _atom_site_occupancy
  Li  Li0  1  0.13027488  -0.08657171  0.15866893  1
  Li  Li1  1  0.13028329  0.58657611  0.65865842  1
  Li  Li2  1  0.63027709  0.58657408  0.84133372  1
  Li  Li3  1  0.36971834  0.08657418  0.65865795  1
  Li  Li4  1  0.86973372  0.41342048  0.34133647  1
  Li  Li5  1  0.36972423  0.41342587  0.15866874  1
  Li  Li6  1  0.63026753  -0.08657929  0.34133433  1
  Li  Li7  1  0.86972401  0.08656835  0.84133716  1
  I  I8  1  0.63091758  0.91045962  0.71169173  1
  I  I9  1  0.63090550  0.58955386  0.21169775  1
  I  I10  1  0.13091413  0.58953938  0.28830409  1
  I  I11  1  0.86909541  0.08954870  0.21169505  1
  I  I12  1  0.36908603  0.41045240  0.78830637  1
  I  I13  1  0.86908103  0.41044968  0.71169503  1
  I  I14  1  0.13091037  0.91046718  0.78830807  1
  I  I15  1  0.36908685  0.08954111  0.28830619  1
