# generated using pymatgen
data_LiBr
_symmetry_space_group_name_H-M   'P 1'
_cell_length_a   6.33514235
_cell_length_b   5.59307326
_cell_length_c   4.97065048
_cell_angle_alpha   90.00016035
_cell_angle_beta   95.04123264
_cell_angle_gamma   90.01100002
_symmetry_Int_Tables_number   1
_chemical_formula_structural   LiBr
_chemical_formula_sum   'Li4 Br4'
_cell_volume   175.44333422
_cell_formula_units_Z   4
loop_
 _symmetry_equiv_pos_site_id
 _symmetry_equiv_pos_as_xyz
  1  'x, y, z'
loop_
 _atom_site_type_symbol
 _atom_site_label
 _atom_site_symmetry_multiplicity
 _atom_site_fract_x
 _atom_site_fract_y
 _atom_site_fract_z
 _atom_site_occupancy
  Li  Li0  1  0.11154718  0.75014879  0.35989894  1
  Li  Li1  1  0.61154624  0.25015743  0.35989654  1
  Li  Li2  1  0.11156252  0.25017086  0.85994226  1
  Li  Li3  1  0.61156156  0.75017658  0.85993779  1
  Br  Br4  1  0.70484906  0.74936128  0.36808089  1
  Br  Br5  1  0.20484700  0.24936625  0.36808191  1
  Br  Br6  1  0.70487107  0.25030705  -0.13188886  1
  Br  Br7  1  0.20486839  0.75031176  -0.13188673  1
