# generated using pymatgen
data_NaI
_symmetry_space_group_name_H-M   'P 1'
_cell_length_a   7.96046014
_cell_length_b   4.66279250
_cell_length_c   9.17898381
_cell_angle_alpha   90.00126979
_cell_angle_beta   125.24717931
_cell_angle_gamma   89.99811604
_symmetry_Int_Tables_number   1
_chemical_formula_structural   NaI
_chemical_formula_sum   'Na4 I4'
_cell_volume   278.24377061
_cell_formula_units_Z   4
loop_
 _symmetry_equiv_pos_site_id
 _symmetry_equiv_pos_as_xyz
  1  'x, y, z'
loop_
 _atom_site_type_symbol
 _atom_site_label
 _atom_site_symmetry_multiplicity
 _atom_site_fract_x
 _atom_site_fract_y
 _atom_site_fract_z
 _atom_site_occupancy
  Na  Na0  1  0.24286630  0.50016336  0.81521517  1
  Na  Na1  1  0.74286662  0.00016399  0.81521560  1
  Na  Na2  1  0.24286878  0.49982755  0.31521523  1
  Na  Na3  1  0.74286803  -0.00017194  0.31521532  1
  I  I4  1  0.24328912  -0.00002589  0.56639561  1
  I  I5  1  0.74328910  0.49997458  0.56639590  1
  I  I6  1  0.24329363  0.00003380  0.06640011  1
  I  I7  1  0.74329352  0.50003456  0.06640042  1
