# generated using pymatgen
data_LiBr
_symmetry_space_group_name_H-M   'P 1'
_cell_length_a   10.13982986
_cell_length_b   10.13984447
_cell_length_c   8.27561485
_cell_angle_alpha   90.00026083
_cell_angle_beta   89.99971424
_cell_angle_gamma   89.99958318
_symmetry_Int_Tables_number   1
_chemical_formula_structural   LiBr
_chemical_formula_sum   'Li16 Br16'
_cell_volume   850.86808105
_cell_formula_units_Z   16
loop_
 _symmetry_equiv_pos_site_id
 _symmetry_equiv_pos_as_xyz
  1  'x, y, z'
loop_
 _atom_site_type_symbol
 _atom_site_label
 _atom_site_symmetry_multiplicity
 _atom_site_fract_x
 _atom_site_fract_y
 _atom_site_fract_z
 _atom_site_occupancy
  Li  Li0  1  0.83165488  -0.00026186  0.89216796  1
  Li  Li1  1  0.49973965  0.83165095  0.14216582  1
  Li  Li2  1  0.16834820  -0.00026190  0.39216783  1
  Li  Li3  1  0.16834641  0.00026213  0.89216564  1
  Li  Li4  1  0.50026053  0.16834893  0.14216911  1
  Li  Li5  1  0.00026137  0.33165369  0.14216692  1
  Li  Li6  1  -0.00026249  0.66834584  0.14216874  1
  Li  Li7  1  0.50026649  0.83165009  0.64216870  1
  Li  Li8  1  0.49973382  0.16834849  0.64216880  1
  Li  Li9  1  0.66834880  0.50025918  0.39216598  1
  Li  Li10  1  0.00026136  0.66834683  0.64216739  1
  Li  Li11  1  0.33165117  0.49974018  0.39216772  1
  Li  Li12  1  -0.00026073  0.33165163  0.64216503  1
  Li  Li13  1  0.66834772  0.49973678  0.89216783  1
  Li  Li14  1  0.33165224  0.50026350  0.89216732  1
  Li  Li15  1  0.83165276  0.00026214  0.39216790  1
  Br  Br16  1  0.81075925  0.49991439  0.64186362  1
  Br  Br17  1  -0.00008424  0.81076200  0.89186260  1
  Br  Br18  1  0.18924116  0.49991294  0.14186405  1
  Br  Br19  1  0.18923933  0.50008641  0.64186269  1
  Br  Br20  1  0.00008453  0.18923931  0.89186446  1
  Br  Br21  1  0.50008571  0.31075900  0.89186460  1
  Br  Br22  1  0.49991349  0.68924052  0.89186659  1
  Br  Br23  1  0.00008535  0.81076143  0.39186324  1
  Br  Br24  1  -0.00008597  0.18923889  0.39186410  1
  Br  Br25  1  0.68924031  0.00008602  0.14186392  1
  Br  Br26  1  0.50008815  0.68924047  0.39186446  1
  Br  Br27  1  0.31075994  -0.00008617  0.14186448  1
  Br  Br28  1  0.49991189  0.31075945  0.39186428  1
  Br  Br29  1  0.68924072  -0.00008040  0.64186364  1
  Br  Br30  1  0.31075926  0.00008095  0.64186470  1
  Br  Br31  1  0.81075895  0.50008823  0.14186501  1
