# generated using pymatgen
data_NaBr
_symmetry_space_group_name_H-M   'P 1'
_cell_length_a   7.26728880
_cell_length_b   4.19667155
_cell_length_c   7.22564784
_cell_angle_alpha   89.99993162
_cell_angle_beta   89.99999484
_cell_angle_gamma   90.00000096
_symmetry_Int_Tables_number   1
_chemical_formula_structural   NaBr
_chemical_formula_sum   'Na4 Br4'
_cell_volume   220.37087246
_cell_formula_units_Z   4
loop_
 _symmetry_equiv_pos_site_id
 _symmetry_equiv_pos_as_xyz
  1  'x, y, z'
loop_
 _atom_site_type_symbol
 _atom_site_label
 _atom_site_symmetry_multiplicity
 _atom_site_fract_x
 _atom_site_fract_y
 _atom_site_fract_z
 _atom_site_occupancy
  Na  Na0  1  0.74971570  0.75564622  0.25973618  1
  Na  Na1  1  0.24971575  0.24435410  0.25972664  1
  Na  Na2  1  0.25028408  0.24435387  0.75972734  1
  Na  Na3  1  0.75028410  0.75564654  0.75973691  1
  Br  Br4  1  0.58327308  0.25226781  0.50948090  1
  Br  Br5  1  0.08327296  0.74773183  0.50947867  1
  Br  Br6  1  0.41672723  0.74773151  0.00947796  1
  Br  Br7  1  0.91672711  0.25226811  0.00948023  1
