# generated using pymatgen
data_LiBr
_symmetry_space_group_name_H-M   'P 1'
_cell_length_a   5.49362301
_cell_length_b   3.89253428
_cell_length_c   7.79598942
_cell_angle_alpha   89.99992034
_cell_angle_beta   90.00002194
_cell_angle_gamma   89.99999507
_symmetry_Int_Tables_number   1
_chemical_formula_structural   LiBr
_chemical_formula_sum   'Li4 Br4'
_cell_volume   166.71034097
_cell_formula_units_Z   4
loop_
 _symmetry_equiv_pos_site_id
 _symmetry_equiv_pos_as_xyz
  1  'x, y, z'
loop_
 _atom_site_type_symbol
 _atom_site_label
 _atom_site_symmetry_multiplicity
 _atom_site_fract_x
 _atom_site_fract_y
 _atom_site_fract_z
 _atom_site_occupancy
  Li  Li0  1  0.75000973  0.00113353  0.37460629  1
  Li  Li1  1  0.24999212  0.50113382  0.12539363  1
  Li  Li2  1  0.74999720  -0.00113606  0.87460810  1
  Li  Li3  1  0.25000273  0.49886423  0.62539162  1
  Br  Br4  1  0.74998907  0.49968814  0.62490844  1
  Br  Br5  1  0.25000987  -0.00031179  0.87509116  1
  Br  Br6  1  0.75000947  0.50031378  0.12491007  1
  Br  Br7  1  0.24998981  0.00031434  0.37509069  1
