# generated using pymatgen
data_LiI
_symmetry_space_group_name_H-M   'P 1'
_cell_length_a   8.46371499
_cell_length_b   8.46372049
_cell_length_c   15.78164650
_cell_angle_alpha   90.03745885
_cell_angle_beta   90.10401986
_cell_angle_gamma   90.19797952
_symmetry_Int_Tables_number   1
_chemical_formula_structural   LiI
_chemical_formula_sum   'Li16 I16'
_cell_volume   1130.50178187
_cell_formula_units_Z   16
loop_
 _symmetry_equiv_pos_site_id
 _symmetry_equiv_pos_as_xyz
  1  'x, y, z'
loop_
 _atom_site_type_symbol
 _atom_site_label
 _atom_site_symmetry_multiplicity
 _atom_site_fract_x
 _atom_site_fract_y
 _atom_site_fract_z
 _atom_site_occupancy
  Li  Li0  1  0.49996424  0.74991684  0.37487022  1
  Li  Li1  1  0.75000368  0.50004274  0.62518358  1
  Li  Li2  1  0.50016609  0.24990510  0.87510915  1
  Li  Li3  1  0.24979172  0.00003073  0.12512007  1
  Li  Li4  1  0.00014997  0.74991387  0.37512215  1
  Li  Li5  1  0.74995386  -0.00011338  0.12514439  1
  Li  Li6  1  -0.00000726  0.24994488  0.87487335  1
  Li  Li7  1  0.00005319  0.75011388  0.87486480  1
  Li  Li8  1  0.75004482  -0.00010774  0.62489472  1
  Li  Li9  1  -0.00017084  0.25007578  0.37514868  1
  Li  Li10  1  0.25021578  0.00017836  0.62483505  1
  Li  Li11  1  0.49998253  0.25007407  0.37485763  1
  Li  Li12  1  0.25015279  0.49999210  0.62509216  1
  Li  Li13  1  0.24979750  0.49990221  0.12483597  1
  Li  Li14  1  0.49991649  0.75005848  0.87515213  1
  Li  Li15  1  0.74996218  0.50006596  0.12490662  1
  I  I16  1  0.75144165  0.75232761  0.75004128  1
  I  I17  1  0.75174574  0.24836287  0.25005770  1
  I  I18  1  0.24822896  0.25222718  0.49999810  1
  I  I19  1  0.25162362  0.74818839  0.74998479  1
  I  I20  1  0.74849594  0.75179024  0.00011454  1
  I  I21  1  0.74791918  0.25212196  0.75005315  1
  I  I22  1  0.25155640  0.25198631  0.24993130  1
  I  I23  1  0.74766738  0.74816361  0.25002715  1
  I  I24  1  0.75226763  0.25159694  -0.00003295  1
  I  I25  1  0.25206468  0.24792438  0.00001724  1
  I  I26  1  0.24829637  0.74810258  -0.00010224  1
  I  I27  1  0.24809747  0.24797643  0.74992864  1
  I  I28  1  0.24746945  0.75179055  0.24996942  1
  I  I29  1  0.25267367  0.75201963  0.49989623  1
  I  I30  1  0.75245559  0.74762099  0.50011931  1
  I  I31  1  0.74801954  0.24780645  0.49998566  1
