# generated using pymatgen
data_LiI
_symmetry_space_group_name_H-M   'P 1'
_cell_length_a   7.87731410
_cell_length_b   4.57757785
_cell_length_c   7.40497001
_cell_angle_alpha   89.99996495
_cell_angle_beta   90.00001800
_cell_angle_gamma   90.00000603
_symmetry_Int_Tables_number   1
_chemical_formula_structural   LiI
_chemical_formula_sum   'Li4 I4'
_cell_volume   267.01595065
_cell_formula_units_Z   4
loop_
 _symmetry_equiv_pos_site_id
 _symmetry_equiv_pos_as_xyz
  1  'x, y, z'
loop_
 _atom_site_type_symbol
 _atom_site_label
 _atom_site_symmetry_multiplicity
 _atom_site_fract_x
 _atom_site_fract_y
 _atom_site_fract_z
 _atom_site_occupancy
  Li  Li0  1  0.58324985  0.25399708  0.61256540  1
  Li  Li1  1  0.08324959  0.74600258  0.61256471  1
  Li  Li2  1  0.41675027  0.74600318  0.11256510  1
  Li  Li3  1  0.91675038  0.25399714  0.11256497  1
  I  I4  1  0.91745119  0.24672722  0.48962151  1
  I  I5  1  0.41745123  0.75327259  0.48962203  1
  I  I6  1  0.08254878  0.75327240  0.98962157  1
  I  I7  1  0.58254871  0.24672780  0.98962210  1
