# generated using pymatgen
data_NaCl
_symmetry_space_group_name_H-M   'P 1'
_cell_length_a   11.70634058
_cell_length_b   11.70634106
_cell_length_c   7.48245308
_cell_angle_alpha   89.99795091
_cell_angle_beta   90.00205649
_cell_angle_gamma   120.02107057
_symmetry_Int_Tables_number   1
_chemical_formula_structural   NaCl
_chemical_formula_sum   'Na18 Cl18'
_cell_volume   887.81956756
_cell_formula_units_Z   18
loop_
 _symmetry_equiv_pos_site_id
 _symmetry_equiv_pos_as_xyz
  1  'x, y, z'
loop_
 _atom_site_type_symbol
 _atom_site_label
 _atom_site_symmetry_multiplicity
 _atom_site_fract_x
 _atom_site_fract_y
 _atom_site_fract_z
 _atom_site_occupancy
  Na  Na0  1  0.72356482  0.14291763  0.56407347  1
  Na  Na1  1  0.72357066  0.58067824  0.06413815  1
  Na  Na2  1  0.19042050  0.94308214  0.73067274  1
  Na  Na3  1  0.75261525  0.80953916  0.73074963  1
  Na  Na4  1  0.52380818  0.91404300  0.89698359  1
  Na  Na5  1  0.85711753  0.58069875  0.56411638  1
  Na  Na6  1  0.75263321  0.94307757  0.23075506  1
  Na  Na7  1  0.19046084  0.24738463  0.23074900  1
  Na  Na8  1  0.41932194  0.27642932  0.56413746  1
  Na  Na9  1  0.41930110  0.14288242  0.06411685  1
  Na  Na10  1  0.05691760  0.80957930  0.23067198  1
  Na  Na11  1  0.05692236  0.24736686  0.73075601  1
  Na  Na12  1  0.08596552  0.60976876  0.89698470  1
  Na  Na13  1  0.08595694  0.47619184  0.39698422  1
  Na  Na14  1  0.85708218  0.27643497  0.06407402  1
  Na  Na15  1  0.52377955  0.60977912  0.39691898  1
  Na  Na16  1  0.39022075  0.47622038  0.89691836  1
  Na  Na17  1  0.39023119  0.91403460  0.39698559  1
  Cl  Cl18  1  0.23477083  0.17899748  0.87446290  1
  Cl  Cl19  1  0.23474728  0.05575105  0.37445359  1
  Cl  Cl20  1  0.15431042  0.43187863  0.04114881  1
  Cl  Cl21  1  0.27757688  0.84565759  0.04118297  1
  Cl  Cl22  1  0.48773111  0.38907082  0.20803729  1
  Cl  Cl23  1  0.82103003  0.05576438  0.87450895  1
  Cl  Cl24  1  0.27759230  0.43190312  0.54113976  1
  Cl  Cl25  1  0.15434250  0.72242313  0.54118311  1
  Cl  Cl26  1  0.94424878  0.76525288  0.87445337  1
  Cl  Cl27  1  0.94423564  0.17897008  0.37450905  1
  Cl  Cl28  1  0.56812145  0.84568970  0.54114840  1
  Cl  Cl29  1  0.56809703  0.72240761  0.04113987  1
  Cl  Cl30  1  0.61093776  0.09864493  0.20798283  1
  Cl  Cl31  1  0.61092925  0.51226916  0.70803713  1
  Cl  Cl32  1  0.82100263  0.76522930  0.37446369  1
  Cl  Cl33  1  0.48769827  0.09861752  0.70798907  1
  Cl  Cl34  1  0.90138249  0.51230177  0.20798856  1
  Cl  Cl35  1  0.90135526  0.38906213  0.70798286  1
