# generated using pymatgen
data_KI
_symmetry_space_group_name_H-M   'P 1'
_cell_length_a   14.83712898
_cell_length_b   14.83711797
_cell_length_c   9.37226401
_cell_angle_alpha   90.00851618
_cell_angle_beta   89.99155230
_cell_angle_gamma   120.00830987
_symmetry_Int_Tables_number   1
_chemical_formula_structural   KI
_chemical_formula_sum   'K18 I18'
_cell_volume   1786.64467356
_cell_formula_units_Z   18
loop_
 _symmetry_equiv_pos_site_id
 _symmetry_equiv_pos_as_xyz
  1  'x, y, z'
loop_
 _atom_site_type_symbol
 _atom_site_label
 _atom_site_symmetry_multiplicity
 _atom_site_fract_x
 _atom_site_fract_y
 _atom_site_fract_z
 _atom_site_occupancy
  K  K0  1  0.58180811  0.85982993  0.28634045  1
  K  K1  1  0.58180887  0.72197125  0.78633738  1
  K  K2  1  0.47350827  0.08486447  0.45301529  1
  K  K3  1  0.61135579  0.52649080  0.45301464  1
  K  K4  1  0.80685391  0.05532838  0.61968728  1
  K  K5  1  0.14016936  0.72197798  0.28633985  1
  K  K6  1  0.61136193  0.08486350  0.95301289  1
  K  K7  1  0.47350913  0.38864415  0.95301456  1
  K  K8  1  0.27802875  0.41819114  0.28633730  1
  K  K9  1  0.27802192  0.85983058  0.78633992  1
  K  K10  1  0.91513555  0.52649168  0.95301528  1
  K  K11  1  0.91513648  0.38863806  0.45301289  1
  K  K12  1  -0.05532130  0.75152572  0.61968579  1
  K  K13  1  -0.05532839  0.19314609  0.11968728  1
  K  K14  1  0.14017001  0.41819185  0.78634044  1
  K  K15  1  0.80685575  0.75152718  0.11968847  1
  K  K16  1  0.24847281  0.19314421  0.61968844  1
  K  K17  1  0.24847429  0.05532132  0.11968574  1
  I  I18  1  0.51774200  0.90480630  0.64459467  1
  I  I19  1  0.51774159  0.61293554  0.14459203  1
  I  I20  1  0.42852565  0.14891550  0.81123181  1
  I  I21  1  0.72038375  0.57147437  0.81123289  1
  I  I22  1  0.76187148  0.94628106  -0.02208103  1
  I  I23  1  0.09519366  0.61294119  0.64459581  1
  I  I24  1  0.72038940  0.14891625  0.31122909  1
  I  I25  1  0.42852568  0.27961628  0.31123284  1
  I  I26  1  0.38706456  0.48225852  0.64459200  1
  I  I27  1  0.38705884  0.90480636  0.14459587  1
  I  I28  1  0.85108452  0.57147433  0.31123184  1
  I  I29  1  0.85108376  0.27961058  0.81122909  1
  I  I30  1  0.05372503  0.81559784  -0.02208433  1
  I  I31  1  0.05371895  0.23812855  0.47791899  1
  I  I32  1  0.09519368  0.48225805  0.14459459  1
  I  I33  1  0.76187195  0.81559792  0.47791835  1
  I  I34  1  0.18440213  0.23812804  -0.02208168  1
  I  I35  1  0.18440217  0.94627500  0.47791571  1
