# generated using pymatgen
data_LiBr
_symmetry_space_group_name_H-M   'P 1'
_cell_length_a   11.96323398
_cell_length_b   11.96325315
_cell_length_c   7.22052832
_cell_angle_alpha   90.00208782
_cell_angle_beta   89.99793169
_cell_angle_gamma   120.00157656
_symmetry_Int_Tables_number   1
_chemical_formula_structural   LiBr
_chemical_formula_sum   'Li18 Br18'
_cell_volume   894.93315370
_cell_formula_units_Z   18
loop_
 _symmetry_equiv_pos_site_id
 _symmetry_equiv_pos_as_xyz
  1  'x, y, z'
loop_
 _atom_site_type_symbol
 _atom_site_label
 _atom_site_symmetry_multiplicity
 _atom_site_fract_x
 _atom_site_fract_y
 _atom_site_fract_z
 _atom_site_occupancy
  Li  Li0  1  0.95958957  0.79108066  0.52247089  1
  Li  Li1  1  0.95956518  0.16842016  0.02230720  1
  Li  Li2  1  0.54260614  0.70658363  0.68962915  1
  Li  Li3  1  0.16409352  0.45750937  0.68954411  1
  Li  Li4  1  0.87549801  0.50164138  0.85191914  1
  Li  Li5  1  0.20881829  0.16838531  0.52238304  1
  Li  Li6  1  0.16404122  0.70659823  0.18946483  1
  Li  Li7  1  0.54248493  0.83591006  0.18954363  1
  Li  Li8  1  0.83157938  0.04043394  0.52230623  1
  Li  Li9  1  0.83161579  0.79118487  0.02237952  1
  Li  Li10  1  0.29341501  0.45738963  0.18962969  1
  Li  Li11  1  0.29339780  0.83595574  0.68946612  1
  Li  Li12  1  0.49828543  0.37387307  0.85187148  1
  Li  Li13  1  0.49836014  0.12450498  0.35192348  1
  Li  Li14  1  0.20891966  0.04041111  0.02247110  1
  Li  Li15  1  0.87562895  0.37384325  0.35200624  1
  Li  Li16  1  0.62615665  0.12437032  0.85200989  1
  Li  Li17  1  0.62612898  0.50172511  0.35187482  1
  Br  Br18  1  0.70680303  0.16547797  0.51616902  1
  Br  Br19  1  0.70678039  0.54136421  0.01604417  1
  Br  Br20  1  0.16767643  0.96001460  0.68625011  1
  Br  Br21  1  0.79238002  0.83235477  0.68615452  1
  Br  Br22  1  0.50170316  0.87476365  0.85225982  1
  Br  Br23  1  0.83448391  0.54126744  0.51607076  1
  Br  Br24  1  0.79227444  0.96001102  0.18611027  1
  Br  Br25  1  0.16764279  0.20761699  0.18615755  1
  Br  Br26  1  0.45863914  0.29322394  0.51604137  1
  Br  Br27  1  0.45873389  0.16551736  0.01607125  1
  Br  Br28  1  0.03998371  0.83232274  0.18624842  1
  Br  Br29  1  0.03998818  0.20772024  0.68611289  1
  Br  Br30  1  0.12512625  0.62694670  0.85221054  1
  Br  Br31  1  0.12523618  0.49829391  0.35226202  1
  Br  Br32  1  0.83452199  0.29319737  0.01616653  1
  Br  Br33  1  0.50173086  0.62694286  0.35237492  1
  Br  Br34  1  0.37306137  0.49826647  0.85237632  1
  Br  Br35  1  0.37304959  0.87487698  0.35220921  1
