# generated using pymatgen
data_NaI
_symmetry_space_group_name_H-M   'P 1'
_cell_length_a   8.95231404
_cell_length_b   5.22993776
_cell_length_c   7.76685312
_cell_angle_alpha   90.00003799
_cell_angle_beta   90.00006794
_cell_angle_gamma   90.00029884
_symmetry_Int_Tables_number   1
_chemical_formula_structural   NaI
_chemical_formula_sum   'Na4 I4'
_cell_volume   363.64441460
_cell_formula_units_Z   4
loop_
 _symmetry_equiv_pos_site_id
 _symmetry_equiv_pos_as_xyz
  1  'x, y, z'
loop_
 _atom_site_type_symbol
 _atom_site_label
 _atom_site_symmetry_multiplicity
 _atom_site_fract_x
 _atom_site_fract_y
 _atom_site_fract_z
 _atom_site_occupancy
  Na  Na0  1  0.08331608  0.24736877  0.45188676  1
  Na  Na1  1  0.58332028  0.75263945  0.45187452  1
  Na  Na2  1  0.91668293  0.75263185  0.95187091  1
  Na  Na3  1  0.41668095  0.24736000  0.95185411  1
  I  I4  1  0.08175627  0.25177118  0.05152827  1
  I  I5  1  0.58175529  0.74823891  0.05152451  1
  I  I6  1  0.91824474  0.74823096  0.55152145  1
  I  I7  1  0.41824346  0.25175889  0.55151764  1
