# generated using pymatgen
data_NaI
_symmetry_space_group_name_H-M   'P 1'
_cell_length_a   5.53478265
_cell_length_b   6.51599624
_cell_length_c   5.40951198
_cell_angle_alpha   89.99977437
_cell_angle_beta   120.28774438
_cell_angle_gamma   89.99829939
_symmetry_Int_Tables_number   1
_chemical_formula_structural   NaI
_chemical_formula_sum   'Na2 I2'
_cell_volume   168.46262369
_cell_formula_units_Z   2
loop_
 _symmetry_equiv_pos_site_id
 _symmetry_equiv_pos_as_xyz
  1  'x, y, z'
loop_
 _atom_site_type_symbol
 _atom_site_label
 _atom_site_symmetry_multiplicity
 _atom_site_fract_x
 _atom_site_fract_y
 _atom_site_fract_z
 _atom_site_occupancy
  Na  Na0  1  0.83029570  0.07992218  0.16511804  1
  Na  Na1  1  0.16970276  0.57991743  0.83488756  1
  I  I2  1  0.16981486  0.08275773  0.83990363  1
  I  I3  1  0.83018668  0.58275676  0.16009077  1
