# generated using pymatgen
data_LiBr
_symmetry_space_group_name_H-M   'P 1'
_cell_length_a   11.23195680
_cell_length_b   11.23196319
_cell_length_c   8.49928262
_cell_angle_alpha   90.00415692
_cell_angle_beta   89.99578667
_cell_angle_gamma   120.01082552
_symmetry_Int_Tables_number   1
_chemical_formula_structural   LiBr
_chemical_formula_sum   'Li18 Br18'
_cell_volume   928.48867638
_cell_formula_units_Z   18
loop_
 _symmetry_equiv_pos_site_id
 _symmetry_equiv_pos_as_xyz
  1  'x, y, z'
loop_
 _atom_site_type_symbol
 _atom_site_label
 _atom_site_symmetry_multiplicity
 _atom_site_fract_x
 _atom_site_fract_y
 _atom_site_fract_z
 _atom_site_occupancy
  Li  Li0  1  0.98473592  0.72708800  0.37874331  1
  Li  Li1  1  0.98471384  0.25761900  0.87872005  1
  Li  Li2  1  0.60625183  0.68193154  0.54538818  1
  Li  Li3  1  0.07577448  0.39387102  0.54540340  1
  Li  Li4  1  0.93944646  0.59088298  0.71207820  1
  Li  Li5  1  0.27278854  0.25755236  0.37876114  1
  Li  Li6  1  0.07570761  0.68195205  0.04536378  1
  Li  Li7  1  0.60612796  0.92422486  0.04540380  1
  Li  Li8  1  0.74237988  0.01528491  0.37872070  1
  Li  Li9  1  0.74244885  0.72721206  0.87876031  1
  Li  Li10  1  0.31806780  0.39374854  0.04538730  1
  Li  Li11  1  0.31804717  0.92429226  0.54536309  1
  Li  Li12  1  0.40904799  0.34861279  0.71203852  1
  Li  Li13  1  0.40911770  0.06055427  0.21207768  1
  Li  Li14  1  0.27291103  0.01526443  0.87874405  1
  Li  Li15  1  0.93957190  0.34859200  0.21206279  1
  Li  Li16  1  0.65140699  0.06042687  0.71206178  1
  Li  Li17  1  0.65138739  0.59095366  0.21203834  1
  Br  Br18  1  0.52556551  0.43786944  0.44907093  1
  Br  Br19  1  0.52560479  0.08768540  0.94911472  1
  Br  Br20  1  0.89546763  0.14110710  0.61574723  1
  Br  Br21  1  0.24561614  0.10453659  0.61581998  1
  Br  Br22  1  0.22879383  0.42104981  0.78247129  1
  Br  Br23  1  0.56212722  0.08772099  0.44914459  1
  Br  Br24  1  0.24565067  0.14106850  0.11579162  1
  Br  Br25  1  0.89546441  0.75438485  0.11581962  1
  Br  Br26  1  0.91231408  0.47439466  0.44911594  1
  Br  Br27  1  0.91227958  0.43787279  0.94914512  1
  Br  Br28  1  0.85889204  0.10453182  0.11574767  1
  Br  Br29  1  0.85893265  0.75435012  0.61579074  1
  Br  Br30  1  0.57898375  0.80773165  0.78244424  1
  Br  Br31  1  0.57894921  0.77120596  0.28247258  1
  Br  Br32  1  0.56213117  0.47443564  0.94907099  1
  Br  Br33  1  0.22879979  0.80777375  0.28239709  1
  Br  Br34  1  0.19222632  0.77120091  0.78239782  1
  Br  Br35  1  0.19226788  0.42101641  0.28244384  1
