# generated using pymatgen
data_LiI
_symmetry_space_group_name_H-M   'P 1'
_cell_length_a   6.44944403
_cell_length_b   5.92665313
_cell_length_c   5.84923944
_cell_angle_alpha   89.99589972
_cell_angle_beta   90.51380159
_cell_angle_gamma   89.99929592
_symmetry_Int_Tables_number   1
_chemical_formula_structural   LiI
_chemical_formula_sum   'Li4 I4'
_cell_volume   223.57010198
_cell_formula_units_Z   4
loop_
 _symmetry_equiv_pos_site_id
 _symmetry_equiv_pos_as_xyz
  1  'x, y, z'
loop_
 _atom_site_type_symbol
 _atom_site_label
 _atom_site_symmetry_multiplicity
 _atom_site_fract_x
 _atom_site_fract_y
 _atom_site_fract_z
 _atom_site_occupancy
  Li  Li0  1  0.73587341  0.75115838  0.25093760  1
  Li  Li1  1  0.23588023  0.25116260  0.25094457  1
  Li  Li2  1  0.73587511  0.24883676  0.75093655  1
  Li  Li3  1  0.23587731  0.74883887  0.75094162  1
  I  I4  1  0.29212730  0.75085358  0.25101336  1
  I  I5  1  0.79212897  0.25085209  0.25101186  1
  I  I6  1  0.29212937  0.24914982  0.75101569  1
  I  I7  1  0.79212753  0.74914789  0.75101174  1
