# generated using pymatgen
data_LiBr
_symmetry_space_group_name_H-M   'P 1'
_cell_length_a   6.68906148
_cell_length_b   6.44546227
_cell_length_c   3.85722590
_cell_angle_alpha   90.00002485
_cell_angle_beta   89.99996240
_cell_angle_gamma   90.00001083
_symmetry_Int_Tables_number   1
_chemical_formula_structural   LiBr
_chemical_formula_sum   'Li4 Br4'
_cell_volume   166.30079765
_cell_formula_units_Z   4
loop_
 _symmetry_equiv_pos_site_id
 _symmetry_equiv_pos_as_xyz
  1  'x, y, z'
loop_
 _atom_site_type_symbol
 _atom_site_label
 _atom_site_symmetry_multiplicity
 _atom_site_fract_x
 _atom_site_fract_y
 _atom_site_fract_z
 _atom_site_occupancy
  Li  Li0  1  0.00032597  0.50177206  0.25256144  1
  Li  Li1  1  -0.00032530  0.00177233  0.24743181  1
  Li  Li2  1  0.49967395  0.49822783  0.75257105  1
  Li  Li3  1  0.50032552  -0.00177234  0.74743607  1
  Br  Br4  1  0.33270767  0.74950380  0.25016833  1
  Br  Br5  1  0.66729161  0.24950396  0.24983226  1
  Br  Br6  1  0.16729177  0.25049639  0.75016872  1
  Br  Br7  1  0.83270881  0.75049596  0.74983032  1
