# generated using pymatgen
data_LiI
_symmetry_space_group_name_H-M   'P 1'
_cell_length_a   8.48184126
_cell_length_b   7.32388884
_cell_length_c   6.99261073
_cell_angle_alpha   90.00136068
_cell_angle_beta   89.99474542
_cell_angle_gamma   89.99877894
_symmetry_Int_Tables_number   1
_chemical_formula_structural   LiI
_chemical_formula_sum   'Li8 I8'
_cell_volume   434.38141418
_cell_formula_units_Z   8
loop_
 _symmetry_equiv_pos_site_id
 _symmetry_equiv_pos_as_xyz
  1  'x, y, z'
loop_
 _atom_site_type_symbol
 _atom_site_label
 _atom_site_symmetry_multiplicity
 _atom_site_fract_x
 _atom_site_fract_y
 _atom_site_fract_z
 _atom_site_occupancy
  Li  Li0  1  0.37446456  0.24892764  0.49923245  1
  Li  Li1  1  0.37446401  0.25108140  -0.00075445  1
  Li  Li2  1  0.87446689  0.25109225  0.50075013  1
  Li  Li3  1  0.12553265  0.75106684  -0.00076372  1
  Li  Li4  1  0.62553665  0.74891697  0.00075462  1
  Li  Li5  1  0.12553298  0.74891053  0.49924978  1
  Li  Li6  1  0.87446778  0.24893124  0.00077066  1
  Li  Li7  1  0.62553733  0.75107477  0.50076110  1
  I  I8  1  0.62515698  0.08372445  0.74987575  1
  I  I9  1  0.62516225  0.41627275  0.24988147  1
  I  I10  1  0.12515294  0.41627366  0.25012002  1
  I  I11  1  0.87484364  -0.08372003  0.24986785  1
  I  I12  1  0.37483793  0.58372734  0.75012157  1
  I  I13  1  0.87484613  0.58372687  0.74987674  1
  I  I14  1  0.12515471  0.08371923  0.75013535  1
  I  I15  1  0.37484257  -0.08372591  0.25012067  1
