# generated using pymatgen
data_LiI
_symmetry_space_group_name_H-M   'P 1'
_cell_length_a   7.79875032
_cell_length_b   7.79581329
_cell_length_c   9.40357376
_cell_angle_alpha   90.00158624
_cell_angle_beta   90.00055441
_cell_angle_gamma   119.99120904
_symmetry_Int_Tables_number   1
_chemical_formula_structural   LiI
_chemical_formula_sum   'Li6 I6'
_cell_volume   495.16333275
_cell_formula_units_Z   6
loop_
 _symmetry_equiv_pos_site_id
 _symmetry_equiv_pos_as_xyz
  1  'x, y, z'
loop_
 _atom_site_type_symbol
 _atom_site_label
 _atom_site_symmetry_multiplicity
 _atom_site_fract_x
 _atom_site_fract_y
 _atom_site_fract_z
 _atom_site_occupancy
  Li  Li0  1  0.38761562  0.60559815  0.38201491  1
  Li  Li1  1  0.78182295  0.38778779  0.21562036  1
  Li  Li2  1  0.21818188  0.61285673  0.71566765  1
  Li  Li3  1  0.60624718  0.21779917  0.54893770  1
  Li  Li4  1  0.39443442  0.78219658  0.04896119  1
  Li  Li5  1  0.61172843  0.39373902  0.88198346  1
  I  I6  1  -0.00250169  0.49920613  0.46644862  1
  I  I7  1  0.49672343  -0.00238831  0.29986871  1
  I  I8  1  0.50539102  0.00236545  0.79986820  1
  I  I9  1  0.49954889  0.50142759  0.63280165  1
  I  I10  1  0.49828326  0.49643037  0.13279503  1
  I  I11  1  0.00252462  0.50298133  -0.03354481  1
