# generated using pymatgen
data_LiBr
_symmetry_space_group_name_H-M   'P 1'
_cell_length_a   8.29105430
_cell_length_b   8.29109878
_cell_length_c   6.64223587
_cell_angle_alpha   90.00018197
_cell_angle_beta   89.99981305
_cell_angle_gamma   90.00021548
_symmetry_Int_Tables_number   1
_chemical_formula_structural   LiBr
_chemical_formula_sum   'Li8 Br8'
_cell_volume   456.60024694
_cell_formula_units_Z   8
loop_
 _symmetry_equiv_pos_site_id
 _symmetry_equiv_pos_as_xyz
  1  'x, y, z'
loop_
 _atom_site_type_symbol
 _atom_site_label
 _atom_site_symmetry_multiplicity
 _atom_site_fract_x
 _atom_site_fract_y
 _atom_site_fract_z
 _atom_site_occupancy
  Li  Li0  1  0.85761871  0.86382285  0.59985628  1
  Li  Li1  1  0.63617357  0.64239527  0.09985880  1
  Li  Li2  1  0.64239358  0.36381260  0.59986106  1
  Li  Li3  1  0.36382036  0.35762025  0.09984938  1
  Li  Li4  1  0.35761002  0.63615968  0.59984945  1
  Li  Li5  1  0.14240026  0.13615932  0.59985754  1
  Li  Li6  1  0.86381564  0.14239873  0.09985673  1
  Li  Li7  1  0.13616802  0.85762736  0.09985377  1
  Br  Br8  1  0.65373773  0.66015440  0.71827281  1
  Br  Br9  1  0.83983884  0.84627141  0.21827697  1
  Br  Br10  1  0.84627167  0.16015537  0.71827280  1
  Br  Br11  1  0.16015544  0.15374155  0.21826380  1
  Br  Br12  1  0.15373762  0.83983325  0.71826933  1
  Br  Br13  1  0.34626805  0.33983347  0.71825811  1
  Br  Br14  1  0.66015472  0.34627167  0.21827183  1
  Br  Br15  1  0.33983578  0.65374282  0.21826046  1
