# generated using pymatgen
data_LiBr
_symmetry_space_group_name_H-M   'P 1'
_cell_length_a   7.72695408
_cell_length_b   6.67762689
_cell_length_c   6.44980403
_cell_angle_alpha   90.00004136
_cell_angle_beta   89.99998745
_cell_angle_gamma   90.00002947
_symmetry_Int_Tables_number   1
_chemical_formula_structural   LiBr
_chemical_formula_sum   'Li8 Br8'
_cell_volume   332.79515874
_cell_formula_units_Z   8
loop_
 _symmetry_equiv_pos_site_id
 _symmetry_equiv_pos_as_xyz
  1  'x, y, z'
loop_
 _atom_site_type_symbol
 _atom_site_label
 _atom_site_symmetry_multiplicity
 _atom_site_fract_x
 _atom_site_fract_y
 _atom_site_fract_z
 _atom_site_occupancy
  Li  Li0  1  0.62649604  0.24994783  -0.00077139  1
  Li  Li1  1  0.62649655  0.25005278  0.49922618  1
  Li  Li2  1  0.12649535  0.25005236  0.00077768  1
  Li  Li3  1  0.87350339  0.75005139  0.49922561  1
  Li  Li4  1  0.37350502  0.74994812  0.50077852  1
  Li  Li5  1  0.87350356  0.74994827  -0.00077434  1
  Li  Li6  1  0.12649584  0.24994785  0.50077822  1
  Li  Li7  1  0.37350479  0.75005230  0.00077790  1
  Br  Br8  1  0.37526429  0.41677257  0.74970484  1
  Br  Br9  1  0.37526476  0.08322710  0.24970524  1
  Br  Br10  1  0.87526509  0.08322714  0.25029058  1
  Br  Br11  1  0.12473523  0.58322698  0.24970499  1
  Br  Br12  1  0.62473543  0.91677257  0.75029045  1
  Br  Br13  1  0.12473574  0.91677277  0.74970499  1
  Br  Br14  1  0.87526429  0.41677219  0.75029052  1
  Br  Br15  1  0.62473463  0.58322779  0.25029001  1
