# generated using pymatgen
data_LiI
_symmetry_space_group_name_H-M   'P 1'
_cell_length_a   11.43622157
_cell_length_b   11.43624196
_cell_length_c   4.24743356
_cell_angle_alpha   89.99977064
_cell_angle_beta   89.99989742
_cell_angle_gamma   90.00001474
_symmetry_Int_Tables_number   1
_chemical_formula_structural   LiI
_chemical_formula_sum   'Li8 I8'
_cell_volume   555.51077953
_cell_formula_units_Z   8
loop_
 _symmetry_equiv_pos_site_id
 _symmetry_equiv_pos_as_xyz
  1  'x, y, z'
loop_
 _atom_site_type_symbol
 _atom_site_label
 _atom_site_symmetry_multiplicity
 _atom_site_fract_x
 _atom_site_fract_y
 _atom_site_fract_z
 _atom_site_occupancy
  Li  Li0  1  0.15876636  0.00009135  0.40559154  1
  Li  Li1  1  0.49990927  0.15876589  0.15559518  1
  Li  Li2  1  0.00009119  0.34123359  0.65559145  1
  Li  Li3  1  -0.00009133  0.65876634  0.65559120  1
  Li  Li4  1  0.50009115  0.84123355  0.15559382  1
  Li  Li5  1  0.65876635  0.50009084  0.90559075  1
  Li  Li6  1  0.34123293  0.49990874  0.90558756  1
  Li  Li7  1  0.84123349  -0.00009139  0.40558389  1
  I  I8  1  0.32204064  0.00033236  0.94691101  1
  I  I9  1  0.49966764  0.32204025  0.69691406  1
  I  I10  1  0.00033251  0.17796003  0.19691195  1
  I  I11  1  -0.00033187  0.82204053  0.19690998  1
  I  I12  1  0.50033213  0.67795978  0.69691437  1
  I  I13  1  0.82204027  0.50033224  0.44690905  1
  I  I14  1  0.17795966  0.49966822  0.44690529  1
  I  I15  1  0.67795960  -0.00033231  0.94690338  1
