# generated using pymatgen
data_NaI
_symmetry_space_group_name_H-M   'P 1'
_cell_length_a   6.54129391
_cell_length_b   6.52793066
_cell_length_c   6.53459710
_cell_angle_alpha   89.99978875
_cell_angle_beta   90.00047460
_cell_angle_gamma   90.00029237
_symmetry_Int_Tables_number   1
_chemical_formula_structural   NaI
_chemical_formula_sum   'Na4 I4'
_cell_volume   279.03456945
_cell_formula_units_Z   4
loop_
 _symmetry_equiv_pos_site_id
 _symmetry_equiv_pos_as_xyz
  1  'x, y, z'
loop_
 _atom_site_type_symbol
 _atom_site_label
 _atom_site_symmetry_multiplicity
 _atom_site_fract_x
 _atom_site_fract_y
 _atom_site_fract_z
 _atom_site_occupancy
  Na  Na0  1  0.75009070  0.24999911  0.74943124  1
  Na  Na1  1  0.24990759  0.24999941  0.24943164  1
  Na  Na2  1  0.24990853  0.75000099  0.74944490  1
  Na  Na3  1  0.75009160  0.75000069  0.24944452  1
  I  I4  1  0.75027405  0.25005791  0.24763484  1
  I  I5  1  0.24972715  0.25005809  0.74763508  1
  I  I6  1  0.24972656  0.74994218  0.24765968  1
  I  I7  1  0.75027382  0.74994162  0.74765946  1
