# generated using pymatgen
data_LiBr
_symmetry_space_group_name_H-M   'P 1'
_cell_length_a   10.33017597
_cell_length_b   10.33599914
_cell_length_c   7.88180436
_cell_angle_alpha   89.99994179
_cell_angle_beta   90.00006086
_cell_angle_gamma   89.99947359
_symmetry_Int_Tables_number   1
_chemical_formula_structural   LiBr
_chemical_formula_sum   'Li16 Br16'
_cell_volume   841.56145283
_cell_formula_units_Z   16
loop_
 _symmetry_equiv_pos_site_id
 _symmetry_equiv_pos_as_xyz
  1  'x, y, z'
loop_
 _atom_site_type_symbol
 _atom_site_label
 _atom_site_symmetry_multiplicity
 _atom_site_fract_x
 _atom_site_fract_y
 _atom_site_fract_z
 _atom_site_occupancy
  Li  Li0  1  0.16593636  0.49929791  0.40630793  1
  Li  Li1  1  0.99914780  0.16617477  0.65661302  1
  Li  Li2  1  0.83406186  0.49929134  0.90630929  1
  Li  Li3  1  0.83406628  0.50070372  0.40630919  1
  Li  Li4  1  0.00085283  0.83382324  0.65661466  1
  Li  Li5  1  0.50085364  0.66617889  0.65661242  1
  Li  Li6  1  0.49914720  0.33382237  0.65661330  1
  Li  Li7  1  0.00085596  0.16617624  0.15661511  1
  Li  Li8  1  0.99914167  0.83382368  0.15661426  1
  Li  Li9  1  0.33406555  0.00070707  0.90631043  1
  Li  Li10  1  0.50085245  0.33382413  0.15661530  1
  Li  Li11  1  0.66593250  0.99929374  0.90631011  1
  Li  Li12  1  0.49914602  0.66617624  0.15661324  1
  Li  Li13  1  0.33406588  0.99928721  0.40630968  1
  Li  Li14  1  0.66593239  0.00071268  0.40630987  1
  Li  Li15  1  0.16593993  0.50070642  0.90630664  1
  Br  Br16  1  0.50051256  0.18429709  0.90657812  1
  Br  Br17  1  0.68436333  0.50076311  0.15647212  1
  Br  Br18  1  0.49948067  0.18429713  0.40657839  1
  Br  Br19  1  0.49948600  0.81570356  0.90657971  1
  Br  Br20  1  0.31563790  0.49923537  0.15647119  1
  Br  Br21  1  0.81564013  0.00076957  0.15647325  1
  Br  Br22  1  0.18435831  -0.00076864  0.15647246  1
  Br  Br23  1  0.31564020  0.50076659  0.65647082  1
  Br  Br24  1  0.68436180  0.49923566  0.65647171  1
  Br  Br25  1  -0.00050812  0.31570346  0.40657977  1
  Br  Br26  1  0.81563892  -0.00076370  0.65647397  1
  Br  Br27  1  0.00050973  0.68429768  0.40657769  1
  Br  Br28  1  0.18436035  0.00076249  0.65647304  1
  Br  Br29  1  -0.00051397  0.68429592  0.90657813  1
  Br  Br30  1  0.00051552  0.31570221  0.90657853  1
  Br  Br31  1  0.50051835  0.81570286  0.40657723  1
