# generated using pymatgen
data_LiBr
_symmetry_space_group_name_H-M   'P 1'
_cell_length_a   7.30923994
_cell_length_b   7.30915006
_cell_length_c   6.57102097
_cell_angle_alpha   89.99997314
_cell_angle_beta   90.00001601
_cell_angle_gamma   120.00058758
_symmetry_Int_Tables_number   1
_chemical_formula_structural   LiBr
_chemical_formula_sum   'Li6 Br6'
_cell_volume   304.01849894
_cell_formula_units_Z   6
loop_
 _symmetry_equiv_pos_site_id
 _symmetry_equiv_pos_as_xyz
  1  'x, y, z'
loop_
 _atom_site_type_symbol
 _atom_site_label
 _atom_site_symmetry_multiplicity
 _atom_site_fract_x
 _atom_site_fract_y
 _atom_site_fract_z
 _atom_site_occupancy
  Li  Li0  1  0.33307317  0.33230674  0.03030373  1
  Li  Li1  1  0.00082587  0.33311742  0.53030216  1
  Li  Li2  1  -0.00082551  0.66688258  0.03030225  1
  Li  Li3  1  0.33236161  -0.00075595  0.53029006  1
  Li  Li4  1  0.66763862  0.00075612  0.03029038  1
  Li  Li5  1  0.66692707  0.66769336  0.53030386  1
  Br  Br6  1  0.66702748  0.00066005  0.64392024  1
  Br  Br7  1  0.66631066  0.66696091  0.14391733  1
  Br  Br8  1  0.33368929  0.33303911  0.64391739  1
  Br  Br9  1  0.00060543  0.33362414  0.14392244  1
  Br  Br10  1  -0.00060570  0.66637557  0.64392266  1
  Br  Br11  1  0.33297200  -0.00066004  0.14392007  1
