# generated using pymatgen
data_LiBr
_symmetry_space_group_name_H-M   'P 1'
_cell_length_a   11.53271915
_cell_length_b   11.53274827
_cell_length_c   7.92732841
_cell_angle_alpha   90.12069912
_cell_angle_beta   89.87951952
_cell_angle_gamma   120.07442096
_symmetry_Int_Tables_number   1
_chemical_formula_structural   LiBr
_chemical_formula_sum   'Li18 Br18'
_cell_volume   912.41949658
_cell_formula_units_Z   18
loop_
 _symmetry_equiv_pos_site_id
 _symmetry_equiv_pos_as_xyz
  1  'x, y, z'
loop_
 _atom_site_type_symbol
 _atom_site_label
 _atom_site_symmetry_multiplicity
 _atom_site_fract_x
 _atom_site_fract_y
 _atom_site_fract_z
 _atom_site_occupancy
  Li  Li0  1  -0.07343432  0.46206629  0.67592032  1
  Li  Li1  1  -0.07319498  0.46489867  0.17645540  1
  Li  Li2  1  0.87126470  0.74010063  0.84258560  1
  Li  Li3  1  0.86891118  0.12903722  0.84242220  1
  Li  Li4  1  0.20429415  0.79775289  0.00909256  1
  Li  Li5  1  0.53762655  0.46442275  0.67576137  1
  Li  Li6  1  0.86843567  0.73986119  0.34311307  1
  Li  Li7  1  0.87096016  0.13108424  0.34242118  1
  Li  Li8  1  0.53510704  0.07319940  0.67644163  1
  Li  Li9  1  0.53557998  0.46237216  0.17576426  1
  Li  Li10  1  0.25989258  0.12873457  0.34259227  1
  Li  Li11  1  0.26013592  0.13156071  0.84311844  1
  Li  Li12  1  0.20177263  0.40653095  0.00978326  1
  Li  Li13  1  0.20225060  0.79571226  0.50909274  1
  Li  Li14  1  0.53793140  0.07343999  0.17591818  1
  Li  Li15  1  0.20459663  0.40676884  0.50925745  1
  Li  Li16  1  0.59322654  0.79540566  0.00925095  1
  Li  Li17  1  0.59347079  0.79822701  0.50978335  1
  Br  Br18  1  0.78616965  0.21173446  0.60404030  1
  Br  Br19  1  0.78628837  0.57428885  0.10290861  1
  Br  Br20  1  0.12160063  0.88049941  0.77071574  1
  Br  Br21  1  0.75933448  0.87870354  0.76993745  1
  Br  Br22  1  0.45462525  -0.09266282  0.93659776  1
  Br  Br23  1  0.78795480  0.57399300  0.60327066  1
  Br  Br24  1  0.75903966  0.88037457  0.26956546  1
  Br  Br25  1  0.12128992  0.24066463  0.26993904  1
  Br  Br26  1  0.42570691  0.21371188  0.60290719  1
  Br  Br27  1  0.42599964  0.21203896  0.10327207  1
  Br  Br28  1  0.11949686  0.87840091  0.27071618  1
  Br  Br29  1  0.11962171  0.24095751  0.76957755  1
  Br  Br30  1  0.09237727  0.54704586  0.93624132  1
  Br  Br31  1  0.09267358  0.54537812  0.43660595  1
  Br  Br32  1  0.78826971  0.21383594  0.10404614  1
  Br  Br33  1  0.45493128  0.54716830  0.43738214  1
  Br  Br34  1  0.45283424  0.54506575  0.93738727  1
  Br  Br35  1  0.45295887  -0.09237433  0.43623445  1
