# generated using pymatgen
data_LiBr
_symmetry_space_group_name_H-M   'P 1'
_cell_length_a   5.57385999
_cell_length_b   5.57367295
_cell_length_c   13.05215534
_cell_angle_alpha   89.99557589
_cell_angle_beta   89.99547576
_cell_angle_gamma   90.00982438
_symmetry_Int_Tables_number   1
_chemical_formula_structural   LiBr
_chemical_formula_sum   'Li8 Br8'
_cell_volume   405.48963933
_cell_formula_units_Z   8
loop_
 _symmetry_equiv_pos_site_id
 _symmetry_equiv_pos_as_xyz
  1  'x, y, z'
loop_
 _atom_site_type_symbol
 _atom_site_label
 _atom_site_symmetry_multiplicity
 _atom_site_fract_x
 _atom_site_fract_y
 _atom_site_fract_z
 _atom_site_occupancy
  Li  Li0  1  0.49895850  0.99669730  0.62509518  1
  Li  Li1  1  0.99670970  0.49899645  0.37493631  1
  Li  Li2  1  -0.00105635  0.50329738  0.12489124  1
  Li  Li3  1  0.00330207  0.50103561  0.87490025  1
  Li  Li4  1  0.00102642  0.49667808  0.62492776  1
  Li  Li5  1  0.50101830  0.00330515  0.12506231  1
  Li  Li6  1  0.49670854  0.00103918  0.37511332  1
  Li  Li7  1  0.50330095  -0.00103115  0.87507464  1
  Br  Br8  1  0.24883985  0.74847761  0.49969796  1
  Br  Br9  1  0.74846539  0.24880155  0.50026159  1
  Br  Br10  1  0.74880920  0.75153800  0.25028216  1
  Br  Br11  1  0.25154144  0.75116906  0.00030615  1
  Br  Br12  1  0.25118640  0.24847311  0.75028550  1
  Br  Br13  1  0.75119156  0.25151645  -0.00026592  1
  Br  Br14  1  0.24845945  0.25119121  0.24971585  1
  Br  Br15  1  0.75153857  0.74881502  0.74971569  1
