# generated using pymatgen
data_LiBr
_symmetry_space_group_name_H-M   'P 1'
_cell_length_a   11.53681145
_cell_length_b   11.53679771
_cell_length_c   7.92223245
_cell_angle_alpha   90.00582262
_cell_angle_beta   89.99429489
_cell_angle_gamma   120.00546153
_symmetry_Int_Tables_number   1
_chemical_formula_structural   LiBr
_chemical_formula_sum   'Li18 Br18'
_cell_volume   913.11479317
_cell_formula_units_Z   18
loop_
 _symmetry_equiv_pos_site_id
 _symmetry_equiv_pos_as_xyz
  1  'x, y, z'
loop_
 _atom_site_type_symbol
 _atom_site_label
 _atom_site_symmetry_multiplicity
 _atom_site_fract_x
 _atom_site_fract_y
 _atom_site_fract_z
 _atom_site_occupancy
  Li  Li0  1  0.59317659  0.79494327  0.70210783  1
  Li  Li1  1  0.59316652  0.79826998  0.20210636  1
  Li  Li2  1  0.53837653  0.07358519  0.86885702  1
  Li  Li3  1  0.53516451  0.46164246  0.86890089  1
  Li  Li4  1  0.87176611  0.13157242  0.03544912  1
  Li  Li5  1  0.20511488  0.79824342  0.70208222  1
  Li  Li6  1  0.53515484  0.07355613  0.36884760  1
  Li  Li7  1  0.53835655  0.46483570  0.36890137  1
  Li  Li8  1  0.20173102  0.40682987  0.70210353  1
  Li  Li9  1  0.20175803  0.79488905  0.20208102  1
  Li  Li10  1  0.92641577  0.46162432  0.36886161  1
  Li  Li11  1  0.92644448  0.46484419  0.86884779  1
  Li  Li12  1  0.86843286  0.74019399  0.03540473  1
  Li  Li13  1  0.86842623  0.12823332  0.53544915  1
  Li  Li14  1  0.20505826  0.40682764  0.20210411  1
  Li  Li15  1  0.87177131  0.74018971  0.53540520  1
  Li  Li16  1  0.25981073  0.12822888  0.03540003  1
  Li  Li17  1  0.25980441  0.13156606  0.53539888  1
  Br  Br18  1  0.42539994  0.21137733  0.79569730  1
  Br  Br19  1  0.42539441  0.21403186  0.29569708  1
  Br  Br20  1  0.12200549  0.24123259  -0.03756345  1
  Br  Br21  1  0.11926426  0.87798019  -0.03754738  1
  Br  Br22  1  0.45534022  0.54742165  0.12917687  1
  Br  Br23  1  0.78865212  0.21403167  0.79578140  1
  Br  Br24  1  0.11925059  0.24123239  0.46243831  1
  Br  Br25  1  0.12202077  0.88073366  0.46245339  1
  Br  Br26  1  0.78596847  0.57460500  0.79570029  1
  Br  Br27  1  0.78596675  0.21134748  0.29578176  1
  Br  Br28  1  0.75876693  0.87799378  0.46243898  1
  Br  Br29  1  0.75876716  0.88074847  -0.03755658  1
  Br  Br30  1  0.45259515  0.90794344  0.12908110  1
  Br  Br31  1  0.45257947  0.54465930  0.62917768  1
  Br  Br32  1  0.78862120  0.57459933  0.29570172  1
  Br  Br33  1  0.45538529  0.90796551  0.62909527  1
  Br  Br34  1  0.09203493  0.54461728  0.12909809  1
  Br  Br35  1  0.09205723  0.54740342  0.62908395  1
