# generated using pymatgen
data_LiBr
_symmetry_space_group_name_H-M   'P 1'
_cell_length_a   3.76533853
_cell_length_b   12.39027358
_cell_length_c   3.83513139
_cell_angle_alpha   89.99984929
_cell_angle_beta   89.75717418
_cell_angle_gamma   89.99988205
_symmetry_Int_Tables_number   1
_chemical_formula_structural   LiBr
_chemical_formula_sum   'Li4 Br4'
_cell_volume   178.92098146
_cell_formula_units_Z   4
loop_
 _symmetry_equiv_pos_site_id
 _symmetry_equiv_pos_as_xyz
  1  'x, y, z'
loop_
 _atom_site_type_symbol
 _atom_site_label
 _atom_site_symmetry_multiplicity
 _atom_site_fract_x
 _atom_site_fract_y
 _atom_site_fract_z
 _atom_site_occupancy
  Li  Li0  1  0.69479245  0.84196072  0.15823642  1
  Li  Li1  1  0.19479220  0.34196244  0.15823795  1
  Li  Li2  1  0.69479412  0.15803925  0.65823511  1
  Li  Li3  1  0.19479927  0.65803720  0.65823104  1
  Br  Br4  1  0.19571724  0.13416167  0.15812921  1
  Br  Br5  1  0.69572147  0.63416015  0.15812573  1
  Br  Br6  1  0.19571823  0.86583846  0.65812021  1
  Br  Br7  1  0.69571687  0.36584011  0.65812169  1
