# generated using pymatgen
data_LiBr
_symmetry_space_group_name_H-M   'P 1'
_cell_length_a   6.69038039
_cell_length_b   3.85885826
_cell_length_c   6.43134455
_cell_angle_alpha   90.00001335
_cell_angle_beta   89.99988511
_cell_angle_gamma   90.00000925
_symmetry_Int_Tables_number   1
_chemical_formula_structural   LiBr
_chemical_formula_sum   'Li4 Br4'
_cell_volume   166.03949928
_cell_formula_units_Z   4
loop_
 _symmetry_equiv_pos_site_id
 _symmetry_equiv_pos_as_xyz
  1  'x, y, z'
loop_
 _atom_site_type_symbol
 _atom_site_label
 _atom_site_symmetry_multiplicity
 _atom_site_fract_x
 _atom_site_fract_y
 _atom_site_fract_z
 _atom_site_occupancy
  Li  Li0  1  0.25020613  0.74970749  0.79019522  1
  Li  Li1  1  0.75020601  0.25029216  0.79019419  1
  Li  Li2  1  0.74979374  0.25028919  0.29019837  1
  Li  Li3  1  0.24979364  0.74971063  0.29019939  1
  Br  Br4  1  0.91706081  0.74935557  0.54038806  1
  Br  Br5  1  0.41705972  0.25064480  0.54038821  1
  Br  Br6  1  0.08294045  0.25064264  0.04038600  1
  Br  Br7  1  0.58293950  0.74935753  0.04038592  1
