# generated using pymatgen
data_LiBr
_symmetry_space_group_name_H-M   'P 1'
_cell_length_a   3.88915373
_cell_length_b   3.88914107
_cell_length_c   11.02830611
_cell_angle_alpha   89.99999609
_cell_angle_beta   90.00000256
_cell_angle_gamma   89.99973298
_symmetry_Int_Tables_number   1
_chemical_formula_structural   LiBr
_chemical_formula_sum   'Li4 Br4'
_cell_volume   166.80828564
_cell_formula_units_Z   4
loop_
 _symmetry_equiv_pos_site_id
 _symmetry_equiv_pos_as_xyz
  1  'x, y, z'
loop_
 _atom_site_type_symbol
 _atom_site_label
 _atom_site_symmetry_multiplicity
 _atom_site_fract_x
 _atom_site_fract_y
 _atom_site_fract_z
 _atom_site_occupancy
  Li  Li0  1  0.49974180  0.00016205  0.71775648  1
  Li  Li1  1  0.00013730  0.50027586  0.46775475  1
  Li  Li2  1  0.50025763  -0.00016234  0.21775499  1
  Li  Li3  1  -0.00013699  0.49972435  0.96775483  1
  Br  Br4  1  -0.00008108  0.50026845  0.71663982  1
  Br  Br5  1  0.50026007  0.00008638  0.46663958  1
  Br  Br6  1  0.00008087  0.49973098  0.21663954  1
  Br  Br7  1  0.49974041  -0.00008573  0.96663960  1
