# generated using pymatgen
data_LiI
_symmetry_space_group_name_H-M   'P 1'
_cell_length_a   7.76171297
_cell_length_b   7.56564634
_cell_length_c   4.75541761
_cell_angle_alpha   90.00004816
_cell_angle_beta   89.99985743
_cell_angle_gamma   89.99994560
_symmetry_Int_Tables_number   1
_chemical_formula_structural   LiI
_chemical_formula_sum   'Li4 I4'
_cell_volume   279.24941781
_cell_formula_units_Z   4
loop_
 _symmetry_equiv_pos_site_id
 _symmetry_equiv_pos_as_xyz
  1  'x, y, z'
loop_
 _atom_site_type_symbol
 _atom_site_label
 _atom_site_symmetry_multiplicity
 _atom_site_fract_x
 _atom_site_fract_y
 _atom_site_fract_z
 _atom_site_occupancy
  Li  Li0  1  -0.15602297  0.85542892  0.25145100  1
  Li  Li1  1  0.15602218  0.35542360  0.24855610  1
  Li  Li2  1  0.65602241  0.14457152  0.75145161  1
  Li  Li3  1  0.34397681  0.64457604  0.74855563  1
  I  I4  1  0.67647051  0.77339497  0.75100008  1
  I  I5  1  0.32353467  0.27339897  0.74899265  1
  I  I6  1  0.82352872  0.22660507  0.25100087  1
  I  I7  1  0.17646766  0.72660092  0.24899207  1
