# generated using pymatgen
data_NaI
_symmetry_space_group_name_H-M   'P 1'
_cell_length_a   8.86668136
_cell_length_b   5.12772154
_cell_length_c   8.06965785
_cell_angle_alpha   89.99868093
_cell_angle_beta   89.99714700
_cell_angle_gamma   90.00016572
_symmetry_Int_Tables_number   1
_chemical_formula_structural   NaI
_chemical_formula_sum   'Na4 I4'
_cell_volume   366.89403819
_cell_formula_units_Z   4
loop_
 _symmetry_equiv_pos_site_id
 _symmetry_equiv_pos_as_xyz
  1  'x, y, z'
loop_
 _atom_site_type_symbol
 _atom_site_label
 _atom_site_symmetry_multiplicity
 _atom_site_fract_x
 _atom_site_fract_y
 _atom_site_fract_z
 _atom_site_occupancy
  Na  Na0  1  0.66696633  0.49787801  0.82264668  1
  Na  Na1  1  0.16696694  0.00212782  0.82255892  1
  Na  Na2  1  0.33304684  0.50212898  0.32256981  1
  Na  Na3  1  0.83304565  -0.00212637  0.32265732  1
  I  I4  1  0.66642230  0.49691946  0.20772465  1
  I  I5  1  0.16640134  0.00307671  0.20766710  1
  I  I6  1  0.33358489  0.50307702  0.70766471  1
  I  I7  1  0.83356571  -0.00308163  0.70772210  1
