# generated using pymatgen
data_KI
_symmetry_space_group_name_H-M   'P 1'
_cell_length_a   7.19519005
_cell_length_b   7.19336191
_cell_length_c   7.15818851
_cell_angle_alpha   89.99970308
_cell_angle_beta   90.00000555
_cell_angle_gamma   90.00035437
_symmetry_Int_Tables_number   1
_chemical_formula_structural   KI
_chemical_formula_sum   'K4 I4'
_cell_volume   370.49070069
_cell_formula_units_Z   4
loop_
 _symmetry_equiv_pos_site_id
 _symmetry_equiv_pos_as_xyz
  1  'x, y, z'
loop_
 _atom_site_type_symbol
 _atom_site_label
 _atom_site_symmetry_multiplicity
 _atom_site_fract_x
 _atom_site_fract_y
 _atom_site_fract_z
 _atom_site_occupancy
  K  K0  1  0.25181810  0.49991837  0.00770113  1
  K  K1  1  0.75181715  0.00008101  0.00770115  1
  K  K2  1  0.74818191  0.50008176  0.50770113  1
  K  K3  1  0.24818282  -0.00008118  0.50770108  1
  I  I4  1  0.74847639  0.00060846  0.50782061  1
  I  I5  1  0.24847579  0.49939217  0.50782060  1
  I  I6  1  0.25152361  -0.00060834  0.00782103  1
  I  I7  1  0.75152422  0.50060775  0.00782099  1
