# generated using pymatgen
data_LiBr
_symmetry_space_group_name_H-M   'P 1'
_cell_length_a   11.52966141
_cell_length_b   11.52967090
_cell_length_c   7.92709936
_cell_angle_alpha   90.00097885
_cell_angle_beta   89.99889323
_cell_angle_gamma   120.00214102
_symmetry_Int_Tables_number   1
_chemical_formula_structural   LiBr
_chemical_formula_sum   'Li18 Br18'
_cell_volume   912.57596839
_cell_formula_units_Z   18
loop_
 _symmetry_equiv_pos_site_id
 _symmetry_equiv_pos_as_xyz
  1  'x, y, z'
loop_
 _atom_site_type_symbol
 _atom_site_label
 _atom_site_symmetry_multiplicity
 _atom_site_fract_x
 _atom_site_fract_y
 _atom_site_fract_z
 _atom_site_occupancy
  Li  Li0  1  0.79631466  0.59405265  0.24648593  1
  Li  Li1  1  0.79631607  0.20225085  0.74651675  1
  Li  Li2  1  0.73926896  0.87029296  0.41335045  1
  Li  Li3  1  0.13103343  0.26071335  0.41334002  1
  Li  Li4  1  0.07261378  0.53559986  0.58000641  1
  Li  Li5  1  0.40595567  0.20225084  0.24647399  1
  Li  Li6  1  0.13103704  0.87030336  0.91338373  1
  Li  Li7  1  0.73928614  0.86896589  0.91333517  1
  Li  Li8  1  0.79775007  0.20368375  0.24651615  1
  Li  Li9  1  0.79774895  0.59404500  0.74647338  1
  Li  Li10  1  0.12970682  0.26073131  0.91335158  1
  Li  Li11  1  0.12969860  0.86896560  0.41338352  1
  Li  Li12  1  0.46440512  0.53699924  0.58006515  1
  Li  Li13  1  0.46440114  0.92738335  0.08000876  1
  Li  Li14  1  0.40595007  0.20368544  0.74648900  1
  Li  Li15  1  0.07260012  0.53699310  0.08002424  1
  Li  Li16  1  0.46300676  0.92739895  0.58002407  1
  Li  Li17  1  0.46299882  0.53559233  0.08006568  1
  Br  Br18  1  0.54553359  0.09261450  0.81966682  1
  Br  Br19  1  0.54552312  0.45293335  0.31966151  1
  Br  Br20  1  0.24074704  0.12111489  -0.01378809  1
  Br  Br21  1  0.88034922  0.75924281  -0.01379010  1
  Br  Br22  1  0.57408508  0.78629608  0.15307182  1
  Br  Br23  1  0.90739997  0.45293755  0.81966319  1
  Br  Br24  1  0.88034900  0.12111687  0.48619298  1
  Br  Br25  1  0.24075994  0.11965300  0.48621274  1
  Br  Br26  1  0.54706630  0.45447694  0.81966112  1
  Br  Br27  1  0.54706219  0.09259807  0.31966211  1
  Br  Br28  1  0.87888688  0.75925481  0.48621026  1
  Br  Br29  1  0.87888306  0.11965089  -0.01380778  1
  Br  Br30  1  0.21370332  0.78779994  0.15305922  1
  Br  Br31  1  0.21370219  0.42591692  0.65307423  1
  Br  Br32  1  0.90738240  0.45446603  0.31966627  1
  Br  Br33  1  0.57407054  0.78779406  0.65307642  1
  Br  Br34  1  0.21220447  0.42592874  0.15307936  1
  Br  Br35  1  0.21219949  0.78629670  0.65305891  1
