# generated using pymatgen
data_LiI
_symmetry_space_group_name_H-M   'P 1'
_cell_length_a   13.04857484
_cell_length_b   13.03637892
_cell_length_c   4.25212411
_cell_angle_alpha   72.07614772
_cell_angle_beta   108.16933889
_cell_angle_gamma   122.24688108
_symmetry_Int_Tables_number   1
_chemical_formula_structural   LiI
_chemical_formula_sum   'Li9 I9'
_cell_volume   572.17882226
_cell_formula_units_Z   9
loop_
 _symmetry_equiv_pos_site_id
 _symmetry_equiv_pos_as_xyz
  1  'x, y, z'
loop_
 _atom_site_type_symbol
 _atom_site_label
 _atom_site_symmetry_multiplicity
 _atom_site_fract_x
 _atom_site_fract_y
 _atom_site_fract_z
 _atom_site_occupancy
  Li  Li0  1  0.25553110  0.46454141  0.69230215  1
  Li  Li1  1  0.86868890  0.41176984  0.36416484  1
  Li  Li2  1  0.58864782  0.13111713  0.35897928  1
  Li  Li3  1  0.20187994  0.07834300  0.03106862  1
  Li  Li4  1  0.92194661  0.79787202  0.02558147  1
  Li  Li5  1  -0.09379568  0.09383294  0.21917675  1
  Li  Li6  1  0.53522216  0.74494913  0.69734887  1
  Li  Li7  1  0.57260938  0.42725941  0.55211675  1
  Li  Li8  1  0.23929744  0.76042900  0.88521648  1
  I  I9  1  0.78002138  0.91127414  0.77188150  1
  I  I10  1  0.43486602  0.56506014  0.27242768  1
  I  I11  1  0.11331727  0.57784364  0.43821453  1
  I  I12  1  0.76819334  0.23177337  -0.06084579  1
  I  I13  1  0.44665829  0.24455128  0.10551948  1
  I  I14  1  0.75513678  0.55361316  0.10709087  1
  I  I15  1  0.10147310  0.89850344  0.60578814  1
  I  I16  1  0.42184387  0.88697731  0.44035266  1
  I  I17  1  0.08846225  0.22028966  0.77403188  1
