# generated using pymatgen
data_LiBr
_symmetry_space_group_name_H-M   'P 1'
_cell_length_a   4.17353826
_cell_length_b   4.17528164
_cell_length_c   10.07206901
_cell_angle_alpha   90.02233647
_cell_angle_beta   89.99854778
_cell_angle_gamma   119.99430253
_symmetry_Int_Tables_number   1
_chemical_formula_structural   LiBr
_chemical_formula_sum   'Li3 Br3'
_cell_volume   152.00728021
_cell_formula_units_Z   3
loop_
 _symmetry_equiv_pos_site_id
 _symmetry_equiv_pos_as_xyz
  1  'x, y, z'
loop_
 _atom_site_type_symbol
 _atom_site_label
 _atom_site_symmetry_multiplicity
 _atom_site_fract_x
 _atom_site_fract_y
 _atom_site_fract_z
 _atom_site_occupancy
  Li  Li0  1  0.33186424  0.99937209  0.27262488  1
  Li  Li1  1  0.00046846  0.33240138  0.60593519  1
  Li  Li2  1  0.66753381  0.66839235  0.93905665  1
  Br  Br3  1  0.33398676  -0.00150195  0.52445320  1
  Br  Br4  1  0.00138232  0.33530141  0.85774570  1
  Br  Br5  1  0.66476440  0.66603472  0.19130490  1
