# generated using pymatgen
data_LiBr
_symmetry_space_group_name_H-M   'P 1'
_cell_length_a   3.89594391
_cell_length_b   3.89594598
_cell_length_c   10.99665799
_cell_angle_alpha   89.99964731
_cell_angle_beta   90.00117908
_cell_angle_gamma   90.00002389
_symmetry_Int_Tables_number   1
_chemical_formula_structural   LiBr
_chemical_formula_sum   'Li4 Br4'
_cell_volume   166.91153043
_cell_formula_units_Z   4
loop_
 _symmetry_equiv_pos_site_id
 _symmetry_equiv_pos_as_xyz
  1  'x, y, z'
loop_
 _atom_site_type_symbol
 _atom_site_label
 _atom_site_symmetry_multiplicity
 _atom_site_fract_x
 _atom_site_fract_y
 _atom_site_fract_z
 _atom_site_occupancy
  Li  Li0  1  0.00131790  0.49931028  0.77277115  1
  Li  Li1  1  0.49930918  -0.00132124  0.02277175  1
  Li  Li2  1  -0.00131880  0.50069444  0.27277252  1
  Li  Li3  1  0.50069239  0.00131905  0.52276951  1
  Br  Br4  1  0.49879405  -0.00125176  0.77223904  1
  Br  Br5  1  -0.00125212  0.50120374  0.02223977  1
  Br  Br6  1  0.50120697  0.00125228  0.27223937  1
  Br  Br7  1  0.00125044  0.49879320  0.52223868  1
