# generated using pymatgen
data_LiI
_symmetry_space_group_name_H-M   'P 1'
_cell_length_a   7.46854973
_cell_length_b   4.70545072
_cell_length_c   7.47044171
_cell_angle_alpha   90.00000914
_cell_angle_beta   89.99997399
_cell_angle_gamma   90.00000273
_symmetry_Int_Tables_number   1
_chemical_formula_structural   LiI
_chemical_formula_sum   'Li4 I4'
_cell_volume   262.53293166
_cell_formula_units_Z   4
loop_
 _symmetry_equiv_pos_site_id
 _symmetry_equiv_pos_as_xyz
  1  'x, y, z'
loop_
 _atom_site_type_symbol
 _atom_site_label
 _atom_site_symmetry_multiplicity
 _atom_site_fract_x
 _atom_site_fract_y
 _atom_site_fract_z
 _atom_site_occupancy
  Li  Li0  1  0.58545961  0.74815708  0.87080266  1
  Li  Li1  1  0.08546155  0.25184297  0.87079811  1
  Li  Li2  1  0.41453800  0.25184284  0.37080297  1
  Li  Li3  1  0.91454022  0.74815707  0.37080682  1
  I  I4  1  0.56821130  0.75173063  0.24363390  1
  I  I5  1  0.06821004  0.24826931  0.24363150  1
  I  I6  1  0.43179032  0.24826910  0.74363322  1
  I  I7  1  0.93178896  0.75173100  0.74363568  1
