# generated using pymatgen
data_NaI
_symmetry_space_group_name_H-M   'P 1'
_cell_length_a   4.61934723
_cell_length_b   4.61844808
_cell_length_c   13.04293418
_cell_angle_alpha   89.99901204
_cell_angle_beta   89.97464680
_cell_angle_gamma   89.99244159
_symmetry_Int_Tables_number   1
_chemical_formula_structural   NaI
_chemical_formula_sum   'Na4 I4'
_cell_volume   278.26073676
_cell_formula_units_Z   4
loop_
 _symmetry_equiv_pos_site_id
 _symmetry_equiv_pos_as_xyz
  1  'x, y, z'
loop_
 _atom_site_type_symbol
 _atom_site_label
 _atom_site_symmetry_multiplicity
 _atom_site_fract_x
 _atom_site_fract_y
 _atom_site_fract_z
 _atom_site_occupancy
  Na  Na0  1  0.49885949  0.00252056  0.08678487  1
  Na  Na1  1  0.00253582  0.50113720  0.83678821  1
  Na  Na2  1  0.50116996  0.99747438  0.58680497  1
  Na  Na3  1  0.99744491  0.49887027  0.33680118  1
  I  I4  1  0.50070150  0.00215440  0.83620620  1
  I  I5  1  0.00210646  0.49927323  0.58618381  1
  I  I6  1  0.49930470  -0.00214878  0.33615170  1
  I  I7  1  -0.00212283  0.50071875  0.08618765  1
