# generated using pymatgen
data_LiBr
_symmetry_space_group_name_H-M   'P 1'
_cell_length_a   11.54249565
_cell_length_b   11.54251365
_cell_length_c   7.92027118
_cell_angle_alpha   89.99501134
_cell_angle_beta   90.00499910
_cell_angle_gamma   120.00242011
_symmetry_Int_Tables_number   1
_chemical_formula_structural   LiBr
_chemical_formula_sum   'Li18 Br18'
_cell_volume   913.81904718
_cell_formula_units_Z   18
loop_
 _symmetry_equiv_pos_site_id
 _symmetry_equiv_pos_as_xyz
  1  'x, y, z'
loop_
 _atom_site_type_symbol
 _atom_site_label
 _atom_site_symmetry_multiplicity
 _atom_site_fract_x
 _atom_site_fract_y
 _atom_site_fract_z
 _atom_site_occupancy
  Li  Li0  1  0.07388815  0.53921231  0.72333827  1
  Li  Li1  1  0.07386333  0.53468716  0.22335564  1
  Li  Li2  1  0.79412113  0.59277711  0.89001102  1
  Li  Li3  1  0.79867098  0.20586571  0.89003952  1
  Li  Li4  1  0.12746640  -0.13200500  0.05669152  1
  Li  Li5  1  0.46080469  0.53466425  0.72336989  1
  Li  Li6  1  0.79864674  0.59281095  0.39002786  1
  Li  Li7  1  0.79413479  0.20133696  0.39003804  1
  Li  Li8  1  0.46531811  0.92614493  0.72335756  1
  Li  Li9  1  0.46533357  0.53920527  0.22336589  1
  Li  Li10  1  0.40722454  0.20588710  0.39000240  1
  Li  Li11  1  0.40719137  0.20135061  0.89002326  1
  Li  Li12  1  0.13197854  0.25946862  0.05668372  1
  Li  Li13  1  0.13199605  0.87253284  0.55669320  1
  Li  Li14  1  0.46079171  0.92612325  0.22334241  1
  Li  Li15  1  0.12744853  0.25943912  0.55666578  1
  Li  Li16  1  0.74054867  0.87254271  0.05667507  1
  Li  Li17  1  0.74051970  -0.13198468  0.55669607  1
  Br  Br18  1  0.24134219  0.11874043  0.12930534  1
  Br  Br19  1  0.24136428  0.12262549  0.62927964  1
  Br  Br20  1  0.21458850  0.42532027  0.29596592  1
  Br  Br21  1  0.21073604  0.78538503  0.29595519  1
  Br  Br22  1  0.54795137  0.45593842  0.46262710  1
  Br  Br23  1  0.88128128  0.12259648  0.12930030  1
  Br  Br24  1  0.21070768  0.42529892  0.79594322  1
  Br  Br25  1  0.21461742  0.78926677  0.79595130  1
  Br  Br26  1  0.87737237  0.75863514  0.12928979  1
  Br  Br27  1  0.87739441  0.11871329  0.62929713  1
  Br  Br28  1  0.57467040  0.78540744  0.79598137  1
  Br  Br29  1  0.57469360  0.78929577  0.29595911  1
  Br  Br30  1  0.54404263  0.09197692  0.46262304  1
  Br  Br31  1  0.54406889  0.45204922  -0.03736739  1
  Br  Br32  1  0.88125418  0.75865886  0.62931542  1
  Br  Br33  1  0.54792568  0.09199374  -0.03735762  1
  Br  Br34  1  0.90801030  0.45208054  0.46263751  1
  Br  Br35  1  0.90803179  0.45595806  -0.03738246  1
