# generated using pymatgen
data_LiBr
_symmetry_space_group_name_H-M   'P 1'
_cell_length_a   10.62574780
_cell_length_b   10.62574286
_cell_length_c   4.24457972
_cell_angle_alpha   90.00012430
_cell_angle_beta   89.99973708
_cell_angle_gamma   90.00007581
_symmetry_Int_Tables_number   1
_chemical_formula_structural   LiBr
_chemical_formula_sum   'Li8 Br8'
_cell_volume   479.24048698
_cell_formula_units_Z   8
loop_
 _symmetry_equiv_pos_site_id
 _symmetry_equiv_pos_as_xyz
  1  'x, y, z'
loop_
 _atom_site_type_symbol
 _atom_site_label
 _atom_site_symmetry_multiplicity
 _atom_site_fract_x
 _atom_site_fract_y
 _atom_site_fract_z
 _atom_site_occupancy
  Li  Li0  1  0.86513307  0.70358916  -0.00030952  1
  Li  Li1  1  0.29641076  0.86513295  0.00031111  1
  Li  Li2  1  0.36513287  0.20358893  0.50031498  1
  Li  Li3  1  0.70358942  0.13486761  0.00031376  1
  Li  Li4  1  0.63486690  0.79641118  0.50030965  1
  Li  Li5  1  0.13486693  0.29641074  -0.00031469  1
  Li  Li6  1  0.79641063  0.36513293  0.49968681  1
  Li  Li7  1  0.20358937  0.63486690  0.49968783  1
  Br  Br8  1  0.27931127  0.10115212  0.00025397  1
  Br  Br9  1  0.89884715  0.27931268  -0.00025167  1
  Br  Br10  1  0.77931096  0.60115249  0.49974731  1
  Br  Br11  1  0.10115279  0.72068755  -0.00025583  1
  Br  Br12  1  0.22068879  0.39884763  0.49974628  1
  Br  Br13  1  0.72068923  0.89884772  0.00025280  1
  Br  Br14  1  0.39884738  0.77931193  0.50025491  1
  Br  Br15  1  0.60115249  0.22068748  0.50025230  1
