# generated using pymatgen
data_LiBr
_symmetry_space_group_name_H-M   'P 1'
_cell_length_a   11.42286268
_cell_length_b   11.42286216
_cell_length_c   7.33540943
_cell_angle_alpha   90.01633167
_cell_angle_beta   89.98336998
_cell_angle_gamma   120.00484862
_symmetry_Int_Tables_number   1
_chemical_formula_structural   LiBr
_chemical_formula_sum   'Li18 Br18'
_cell_volume   828.86468877
_cell_formula_units_Z   18
loop_
 _symmetry_equiv_pos_site_id
 _symmetry_equiv_pos_as_xyz
  1  'x, y, z'
loop_
 _atom_site_type_symbol
 _atom_site_label
 _atom_site_symmetry_multiplicity
 _atom_site_fract_x
 _atom_site_fract_y
 _atom_site_fract_z
 _atom_site_occupancy
  Li  Li0  1  0.56520754  0.43173684  0.12366699  1
  Li  Li1  1  0.56524254  0.13351005  0.62369755  1
  Li  Li2  1  0.90150787  0.10134786  0.29108287  1
  Li  Li3  1  0.19983817  0.09849788  0.29106681  1
  Li  Li4  1  0.23452901  0.46686753  0.45739824  1
  Li  Li5  1  0.56826426  0.13348358  0.12366735  1
  Li  Li6  1  0.19983675  0.10130217  0.79108583  1
  Li  Li7  1  0.90150654  0.80016121  0.79106738  1
  Li  Li8  1  0.86648979  0.43474980  0.12369902  1
  Li  Li9  1  0.86651664  0.43173797  0.62366813  1
  Li  Li10  1  0.89865000  0.09848995  0.79108132  1
  Li  Li11  1  0.89869936  0.80016371  0.29108539  1
  Li  Li12  1  0.53314603  0.76765591  0.45744321  1
  Li  Li13  1  0.53313361  0.76546860  0.95739551  1
  Li  Li14  1  0.56826708  0.43479628  0.62366729  1
  Li  Li15  1  0.23456115  0.76768825  0.95744675  1
  Li  Li16  1  0.23231694  0.76544455  0.45744553  1
  Li  Li17  1  0.23233803  0.46685391  0.95744523  1
  Br  Br18  1  0.11835905  0.56005618  0.19494223  1
  Br  Br19  1  0.11838054  0.55831568  0.69494550  1
  Br  Br20  1  0.77294711  0.54826821  0.36135843  1
  Br  Br21  1  0.77529787  0.22704467  0.36144188  1
  Br  Br22  1  0.10658113  0.89161167  0.52842473  1
  Br  Br23  1  0.43991498  0.55830891  0.19502342  1
  Br  Br24  1  0.77530069  0.54826315  0.86135660  1
  Br  Br25  1  0.77295418  0.22470127  0.86144113  1
  Br  Br26  1  0.44168519  0.88161947  0.19494376  1
  Br  Br27  1  0.44169057  0.56008413  0.69502358  1
  Br  Br28  1  0.45173125  0.22705301  0.86135744  1
  Br  Br29  1  0.45173643  0.22469854  0.36135468  1
  Br  Br30  1  0.10839441  0.21497352  0.52835470  1
  Br  Br31  1  0.10838869  0.89341865  0.02842509  1
  Br  Br32  1  0.43994421  0.88164060  0.69493998  1
  Br  Br33  1  0.10657302  0.21495664  0.02835395  1
  Br  Br34  1  0.78504263  0.89342538  0.52835186  1
  Br  Br35  1  0.78502674  0.89160425  0.02835258  1
