# generated using pymatgen
data_KS
_symmetry_space_group_name_H-M   'P 1'
_cell_length_a   4.79335955
_cell_length_b   4.78863519
_cell_length_c   8.86949496
_cell_angle_alpha   90.00006423
_cell_angle_beta   89.97723743
_cell_angle_gamma   89.99939017
_symmetry_Int_Tables_number   1
_chemical_formula_structural   KS
_chemical_formula_sum   'K4 S4'
_cell_volume   203.58726920
_cell_formula_units_Z   4
loop_
 _symmetry_equiv_pos_site_id
 _symmetry_equiv_pos_as_xyz
  1  'x, y, z'
loop_
 _atom_site_type_symbol
 _atom_site_label
 _atom_site_symmetry_multiplicity
 _atom_site_fract_x
 _atom_site_fract_y
 _atom_site_fract_z
 _atom_site_occupancy
  K  K0  1  0.12070334  0.49940355  0.92289623  1
  K  K1  1  0.62070332  0.99940356  0.92289622  1
  K  K2  1  0.12070286  0.50059602  0.42289641  1
  K  K3  1  0.62070282  0.00059603  0.42289639  1
  S  S4  1  0.11981475  -0.00117165  0.67298716  1
  S  S5  1  0.61981475  0.49882833  0.67298716  1
  S  S6  1  0.11981503  0.00117208  0.17298705  1
  S  S7  1  0.61981503  0.50117210  0.17298706  1
