# generated using pymatgen
data_LiI
_symmetry_space_group_name_H-M   'P 1'
_cell_length_a   8.20173000
_cell_length_b   7.91017466
_cell_length_c   8.20375830
_cell_angle_alpha   89.99998058
_cell_angle_beta   90.00065726
_cell_angle_gamma   89.99961618
_symmetry_Int_Tables_number   1
_chemical_formula_structural   LiI
_chemical_formula_sum   'Li8 I8'
_cell_volume   532.23618557
_cell_formula_units_Z   8
loop_
 _symmetry_equiv_pos_site_id
 _symmetry_equiv_pos_as_xyz
  1  'x, y, z'
loop_
 _atom_site_type_symbol
 _atom_site_label
 _atom_site_symmetry_multiplicity
 _atom_site_fract_x
 _atom_site_fract_y
 _atom_site_fract_z
 _atom_site_occupancy
  Li  Li0  1  0.17678983  0.12480601  0.57008796  1
  Li  Li1  1  0.17679800  0.37519323  0.07007922  1
  Li  Li2  1  0.67678923  0.37519710  0.42991282  1
  Li  Li3  1  0.32320024  0.87519580  0.07008162  1
  Li  Li4  1  0.82320200  0.62480228  0.92992105  1
  Li  Li5  1  0.32321051  0.62480925  0.57008313  1
  Li  Li6  1  0.67679572  0.12480548  0.92991817  1
  Li  Li7  1  0.82321451  0.87519260  0.42991242  1
  I  I8  1  0.34281125  0.34384460  0.36605718  1
  I  I9  1  0.34281329  0.15615053  0.86605573  1
  I  I10  1  0.84281160  0.15615208  0.63394741  1
  I  I11  1  0.15718480  0.65615307  0.86605161  1
  I  I12  1  0.65718571  0.84384661  0.13394602  1
  I  I13  1  0.15718809  0.84384914  0.36605262  1
  I  I14  1  0.84281741  0.34384440  0.13394909  1
  I  I15  1  0.65718780  0.65615782  0.63394396  1
