# generated using pymatgen
data_LiBr
_symmetry_space_group_name_H-M   'P 1'
_cell_length_a   4.60530969
_cell_length_b   10.04374522
_cell_length_c   4.55875169
_cell_angle_alpha   89.99953471
_cell_angle_beta   89.99999716
_cell_angle_gamma   89.99997969
_symmetry_Int_Tables_number   1
_chemical_formula_structural   LiBr
_chemical_formula_sum   'Li4 Br4'
_cell_volume   210.86304067
_cell_formula_units_Z   4
loop_
 _symmetry_equiv_pos_site_id
 _symmetry_equiv_pos_as_xyz
  1  'x, y, z'
loop_
 _atom_site_type_symbol
 _atom_site_label
 _atom_site_symmetry_multiplicity
 _atom_site_fract_x
 _atom_site_fract_y
 _atom_site_fract_z
 _atom_site_occupancy
  Li  Li0  1  -0.00063808  0.49748502  0.74057433  1
  Li  Li1  1  0.00063837  -0.00251636  0.75943303  1
  Li  Li2  1  0.50063791  0.50251400  0.24056891  1
  Li  Li3  1  0.49936136  0.00251734  0.25942420  1
  Br  Br4  1  0.00053210  0.61378270  0.24089534  1
  Br  Br5  1  -0.00053245  0.11378270  0.25910170  1
  Br  Br6  1  0.49946811  0.38621726  0.74089998  1
  Br  Br7  1  0.50053267  0.88621735  0.75910252  1
