# generated using pymatgen
data_KI
_symmetry_space_group_name_H-M   'P 1'
_cell_length_a   8.68889816
_cell_length_b   8.68937343
_cell_length_c   4.34746721
_cell_angle_alpha   89.99945889
_cell_angle_beta   90.00000792
_cell_angle_gamma   90.00000005
_symmetry_Int_Tables_number   1
_chemical_formula_structural   KI
_chemical_formula_sum   'K4 I4'
_cell_volume   328.23847275
_cell_formula_units_Z   4
loop_
 _symmetry_equiv_pos_site_id
 _symmetry_equiv_pos_as_xyz
  1  'x, y, z'
loop_
 _atom_site_type_symbol
 _atom_site_label
 _atom_site_symmetry_multiplicity
 _atom_site_fract_x
 _atom_site_fract_y
 _atom_site_fract_z
 _atom_site_occupancy
  K  K0  1  0.50254478  0.74976476  0.86430976  1
  K  K1  1  0.99745522  0.24976475  0.86431067  1
  K  K2  1  0.49745522  0.25023529  0.86431067  1
  K  K3  1  0.00254477  0.75023529  0.86430975  1
  I  I4  1  0.25017747  0.49825881  0.36293013  1
  I  I5  1  0.24982254  -0.00174119  0.36293128  1
  I  I6  1  0.74982254  0.50174115  0.36293176  1
  I  I7  1  0.75017746  0.00174114  0.36293061  1
