# generated using pymatgen
data_KI
_symmetry_space_group_name_H-M   'P 1'
_cell_length_a   4.66927059
_cell_length_b   16.93585620
_cell_length_c   5.20434639
_cell_angle_alpha   90.00022063
_cell_angle_beta   89.99988264
_cell_angle_gamma   90.00022947
_symmetry_Int_Tables_number   1
_chemical_formula_structural   KI
_chemical_formula_sum   'K4 I4'
_cell_volume   411.54979957
_cell_formula_units_Z   4
loop_
 _symmetry_equiv_pos_site_id
 _symmetry_equiv_pos_as_xyz
  1  'x, y, z'
loop_
 _atom_site_type_symbol
 _atom_site_label
 _atom_site_symmetry_multiplicity
 _atom_site_fract_x
 _atom_site_fract_y
 _atom_site_fract_z
 _atom_site_occupancy
  K  K0  1  0.26464201  0.34867641  0.08539776  1
  K  K1  1  0.73535766  0.84867599  0.58539776  1
  K  K2  1  0.73535867  0.65132360  0.08539526  1
  K  K3  1  0.26464165  0.15132401  0.58539503  1
  I  I4  1  0.76462965  0.14193555  0.08463613  1
  I  I5  1  0.23537179  0.64193557  0.58463648  1
  I  I6  1  0.23536995  0.85806444  0.08463845  1
  I  I7  1  0.76462862  0.35806443  0.58463862  1
