# generated using pymatgen
data_LiBr
_symmetry_space_group_name_H-M   'P 1'
_cell_length_a   6.45280394
_cell_length_b   5.09367838
_cell_length_c   6.48309638
_cell_angle_alpha   89.99995255
_cell_angle_beta   90.00055144
_cell_angle_gamma   90.00000806
_symmetry_Int_Tables_number   1
_chemical_formula_structural   LiBr
_chemical_formula_sum   'Li4 Br4'
_cell_volume   213.08970451
_cell_formula_units_Z   4
loop_
 _symmetry_equiv_pos_site_id
 _symmetry_equiv_pos_as_xyz
  1  'x, y, z'
loop_
 _atom_site_type_symbol
 _atom_site_label
 _atom_site_symmetry_multiplicity
 _atom_site_fract_x
 _atom_site_fract_y
 _atom_site_fract_z
 _atom_site_occupancy
  Li  Li0  1  0.75052547  0.49327935  0.78767403  1
  Li  Li1  1  0.25052517  0.50672041  0.78767339  1
  Li  Li2  1  0.24947623  0.50672518  0.28768027  1
  Li  Li3  1  0.74947614  0.49327541  0.28768067  1
  Br  Br4  1  0.00367772  0.27456697  0.03739057  1
  Br  Br5  1  0.50367774  0.72543291  0.03738989  1
  Br  Br6  1  -0.00367927  0.72543438  0.53739025  1
  Br  Br7  1  0.49632081  0.27456540  0.53739053  1
