# generated using pymatgen
data_KI
_symmetry_space_group_name_H-M   'P 1'
_cell_length_a   10.77620519
_cell_length_b   7.11966408
_cell_length_c   5.92640518
_cell_angle_alpha   89.99997250
_cell_angle_beta   89.99999846
_cell_angle_gamma   90.00000165
_symmetry_Int_Tables_number   1
_chemical_formula_structural   KI
_chemical_formula_sum   'K4 I4'
_cell_volume   454.69135321
_cell_formula_units_Z   4
loop_
 _symmetry_equiv_pos_site_id
 _symmetry_equiv_pos_as_xyz
  1  'x, y, z'
loop_
 _atom_site_type_symbol
 _atom_site_label
 _atom_site_symmetry_multiplicity
 _atom_site_fract_x
 _atom_site_fract_y
 _atom_site_fract_z
 _atom_site_occupancy
  K  K0  1  0.83708522  0.75094823  0.78820584  1
  K  K1  1  0.16291501  0.25094829  0.71179418  1
  K  K2  1  0.66291500  0.24905171  0.28820581  1
  K  K3  1  0.33708522  0.74905176  0.21179415  1
  I  I4  1  0.66086530  0.74855891  0.28821702  1
  I  I5  1  0.33913447  0.24855891  0.21178389  1
  I  I6  1  0.83913447  0.25144111  0.78821612  1
  I  I7  1  0.16086530  0.75144108  0.71178299  1
