# generated using pymatgen
data_KI
_symmetry_space_group_name_H-M   'P 1'
_cell_length_a   9.63160467
_cell_length_b   9.63160986
_cell_length_c   4.52404368
_cell_angle_alpha   89.99974473
_cell_angle_beta   89.99961924
_cell_angle_gamma   89.99998407
_symmetry_Int_Tables_number   1
_chemical_formula_structural   KI
_chemical_formula_sum   'K4 I4'
_cell_volume   419.68584383
_cell_formula_units_Z   4
loop_
 _symmetry_equiv_pos_site_id
 _symmetry_equiv_pos_as_xyz
  1  'x, y, z'
loop_
 _atom_site_type_symbol
 _atom_site_label
 _atom_site_symmetry_multiplicity
 _atom_site_fract_x
 _atom_site_fract_y
 _atom_site_fract_z
 _atom_site_occupancy
  K  K0  1  0.64647696  0.85296073  0.73677618  1
  K  K1  1  0.35352304  0.14703931  0.73678053  1
  K  K2  1  0.85296057  0.35352294  0.73677745  1
  K  K3  1  0.14703916  0.64647683  0.73677932  1
  I  I4  1  0.15545938  0.34415634  0.23605130  1
  I  I5  1  0.84454067  0.65584365  0.23604730  1
  I  I6  1  0.34415616  0.84454091  0.23605068  1
  I  I7  1  0.65584407  0.15545930  0.23604779  1
