# generated using pymatgen
data_LiBr
_symmetry_space_group_name_H-M   'P 1'
_cell_length_a   6.31575684
_cell_length_b   5.51252012
_cell_length_c   6.37123375
_cell_angle_alpha   90.00027708
_cell_angle_beta   89.99994931
_cell_angle_gamma   90.00001002
_symmetry_Int_Tables_number   1
_chemical_formula_structural   LiBr
_chemical_formula_sum   'Li4 Br4'
_cell_volume   221.81919637
_cell_formula_units_Z   4
loop_
 _symmetry_equiv_pos_site_id
 _symmetry_equiv_pos_as_xyz
  1  'x, y, z'
loop_
 _atom_site_type_symbol
 _atom_site_label
 _atom_site_symmetry_multiplicity
 _atom_site_fract_x
 _atom_site_fract_y
 _atom_site_fract_z
 _atom_site_occupancy
  Li  Li0  1  0.25044525  0.00189370  0.41480767  1
  Li  Li1  1  0.75044455  -0.00189432  0.41480815  1
  Li  Li2  1  0.74955527  -0.00189307  0.91481277  1
  Li  Li3  1  0.24955464  0.00189355  0.91481231  1
  Br  Br4  1  -0.00112050  0.21880701  0.16462320  1
  Br  Br5  1  0.49887924  0.78119296  0.16462407  1
  Br  Br6  1  0.00112076  0.78119878  0.66462426  1
  Br  Br7  1  0.50112079  0.21880138  0.66462277  1
