# generated using pymatgen
data_LiBr
_symmetry_space_group_name_H-M   'P 1'
_cell_length_a   11.52284056
_cell_length_b   11.52285396
_cell_length_c   7.91976429
_cell_angle_alpha   90.00201964
_cell_angle_beta   89.99796026
_cell_angle_gamma   120.00308952
_symmetry_Int_Tables_number   1
_chemical_formula_structural   LiBr
_chemical_formula_sum   'Li18 Br18'
_cell_volume   910.64472563
_cell_formula_units_Z   18
loop_
 _symmetry_equiv_pos_site_id
 _symmetry_equiv_pos_as_xyz
  1  'x, y, z'
loop_
 _atom_site_type_symbol
 _atom_site_label
 _atom_site_symmetry_multiplicity
 _atom_site_fract_x
 _atom_site_fract_y
 _atom_site_fract_z
 _atom_site_occupancy
  Li  Li0  1  0.12997167  0.26009378  0.56451398  1
  Li  Li1  1  0.12996607  0.86988296  0.06450557  1
  Li  Li2  1  0.07323924  0.53669295  0.73118052  1
  Li  Li3  1  0.46346193  0.92675984  0.73117802  1
  Li  Li4  1  0.40657382  0.20320542  0.89784306  1
  Li  Li5  1  0.73990771  0.86987334  0.56451177  1
  Li  Li6  1  0.46345093  0.53670097  0.23117118  1
  Li  Li7  1  0.07324079  0.53653834  0.23117886  1
  Li  Li8  1  0.13011763  0.87003395  0.56450510  1
  Li  Li9  1  0.13012667  0.26009258  0.06451213  1
  Li  Li10  1  0.46330691  0.92676037  0.23118066  1
  Li  Li11  1  0.46329953  0.53655008  0.73117083  1
  Li  Li12  1  0.79678224  0.20336706  0.89783833  1
  Li  Li13  1  0.79679399  0.59342521  0.39784424  1
  Li  Li14  1  0.73990625  0.87002724  0.06451384  1
  Li  Li15  1  0.40657375  0.20336033  0.39784515  1
  Li  Li16  1  0.79663989  0.59342613  0.89784560  1
  Li  Li17  1  0.79663159  0.20321688  0.39783803  1
  Br  Br18  1  0.24113787  0.12076960  0.13737629  1
  Br  Br19  1  0.24113602  0.12036748  0.63737660  1
  Br  Br20  1  0.21256361  0.42552787  0.30404312  1
  Br  Br21  1  0.21297122  0.78743872  0.30404199  1
  Br  Br22  1  0.54589508  0.45369589  0.47070822  1
  Br  Br23  1  0.87922761  0.12036254  0.13737636  1
  Br  Br24  1  0.21296537  0.42552987  0.80404478  1
  Br  Br25  1  0.21256139  0.78702904  0.80404208  1
  Br  Br26  1  0.87963257  0.75886344  0.13737723  1
  Br  Br27  1  0.87963740  0.12077238  0.63737648  1
  Br  Br28  1  0.57447198  0.78743681  0.80404339  1
  Br  Br29  1  0.57447077  0.78703485  0.30404414  1
  Br  Br30  1  0.54629770  0.09219640  0.47071081  1
  Br  Br31  1  0.54630442  0.45410505  0.97070783  1
  Br  Br32  1  0.87923111  0.75886226  0.63737580  1
  Br  Br33  1  0.54589650  0.09219518  0.97071083  1
  Br  Br34  1  0.90780497  0.45410372  0.47071014  1
  Br  Br35  1  0.90780381  0.45370147  0.97071164  1
