# generated using pymatgen
data_LiBr
_symmetry_space_group_name_H-M   'P 1'
_cell_length_a   10.03490554
_cell_length_b   10.03493557
_cell_length_c   3.88207719
_cell_angle_alpha   89.99998285
_cell_angle_beta   89.99993671
_cell_angle_gamma   120.00569538
_symmetry_Int_Tables_number   1
_chemical_formula_structural   LiBr
_chemical_formula_sum   'Li6 Br6'
_cell_volume   338.53045788
_cell_formula_units_Z   6
loop_
 _symmetry_equiv_pos_site_id
 _symmetry_equiv_pos_as_xyz
  1  'x, y, z'
loop_
 _atom_site_type_symbol
 _atom_site_label
 _atom_site_symmetry_multiplicity
 _atom_site_fract_x
 _atom_site_fract_y
 _atom_site_fract_z
 _atom_site_occupancy
  Li  Li0  1  0.08289102  0.66015623  0.74513223  1
  Li  Li1  1  0.42281237  0.08294247  0.91182533  1
  Li  Li2  1  0.57718788  0.91705759  0.41182497  1
  Li  Li3  1  0.66016765  0.57725916  0.57835324  1
  Li  Li4  1  0.33983205  0.42274076  0.07835392  1
  Li  Li5  1  0.91710875  0.33984360  0.24513264  1
  Br  Br6  1  0.42193541  0.30651435  0.58532234  1
  Br  Br7  1  0.11544205  0.42198216  0.75183229  1
  Br  Br8  1  0.88455810  0.57801783  0.25183308  1
  Br  Br9  1  0.30652750  0.88458731  0.41868194  1
  Br  Br10  1  0.69347289  0.11541304  0.91868108  1
  Br  Br11  1  0.57806434  0.69348550  0.08532192  1
