# generated using pymatgen
data_LiBr
_symmetry_space_group_name_H-M   'P 1'
_cell_length_a   5.51039057
_cell_length_b   5.50619148
_cell_length_c   5.50789824
_cell_angle_alpha   90.00000217
_cell_angle_beta   90.00002603
_cell_angle_gamma   89.99999477
_symmetry_Int_Tables_number   1
_chemical_formula_structural   LiBr
_chemical_formula_sum   'Li4 Br4'
_cell_volume   167.11660373
_cell_formula_units_Z   4
loop_
 _symmetry_equiv_pos_site_id
 _symmetry_equiv_pos_as_xyz
  1  'x, y, z'
loop_
 _atom_site_type_symbol
 _atom_site_label
 _atom_site_symmetry_multiplicity
 _atom_site_fract_x
 _atom_site_fract_y
 _atom_site_fract_z
 _atom_site_occupancy
  Li  Li0  1  0.24990838  0.49958001  0.48813755  1
  Li  Li1  1  0.74990958  0.00042074  0.48813899  1
  Li  Li2  1  0.75009109  0.50042100  -0.01186187  1
  Li  Li3  1  0.25009238  0.99957941  -0.01186282  1
  Br  Br4  1  0.75028757  0.00045359  0.98995270  1
  Br  Br5  1  0.25028693  0.49954588  0.98995165  1
  Br  Br6  1  0.24971242  -0.00045411  0.48995080  1
  Br  Br7  1  0.74971165  0.50045348  0.48995140  1
