# generated using pymatgen
data_KI
_symmetry_space_group_name_H-M   'P 1'
_cell_length_a   5.06439026
_cell_length_b   7.19335384
_cell_length_c   7.15800304
_cell_angle_alpha   89.99999844
_cell_angle_beta   45.21985400
_cell_angle_gamma   90.00000050
_symmetry_Int_Tables_number   1
_chemical_formula_structural   KI
_chemical_formula_sum   'K2 I2'
_cell_volume   185.09536980
_cell_formula_units_Z   2
loop_
 _symmetry_equiv_pos_site_id
 _symmetry_equiv_pos_as_xyz
  1  'x, y, z'
loop_
 _atom_site_type_symbol
 _atom_site_label
 _atom_site_symmetry_multiplicity
 _atom_site_fract_x
 _atom_site_fract_y
 _atom_site_fract_z
 _atom_site_occupancy
  K  K0  1  0.65729716  0.75047252  0.68945226  1
  K  K1  1  0.65729770  0.24952748  0.18945193  1
  I  I2  1  0.65696229  0.25020254  0.68957201  1
  I  I3  1  0.65696179  0.74979746  0.18957242  1
