# generated using pymatgen
data_LiBr
_symmetry_space_group_name_H-M   'P 1'
_cell_length_a   7.32250123
_cell_length_b   4.26436558
_cell_length_c   6.45545745
_cell_angle_alpha   89.99996728
_cell_angle_beta   90.00005127
_cell_angle_gamma   90.00000621
_symmetry_Int_Tables_number   1
_chemical_formula_structural   LiBr
_chemical_formula_sum   'Li4 Br4'
_cell_volume   201.57696679
_cell_formula_units_Z   4
loop_
 _symmetry_equiv_pos_site_id
 _symmetry_equiv_pos_as_xyz
  1  'x, y, z'
loop_
 _atom_site_type_symbol
 _atom_site_label
 _atom_site_symmetry_multiplicity
 _atom_site_fract_x
 _atom_site_fract_y
 _atom_site_fract_z
 _atom_site_occupancy
  Li  Li0  1  0.91603002  0.74974135  0.57897138  1
  Li  Li1  1  0.41605416  0.25026019  0.57897539  1
  Li  Li2  1  0.08396841  0.25025918  0.07896607  1
  Li  Li3  1  0.58395186  0.74974067  0.07897064  1
  Br  Br4  1  0.91848673  0.74943535  0.18676458  1
  Br  Br5  1  0.41848035  0.25056403  0.18675657  1
  Br  Br6  1  0.08150937  0.25056356  0.68676459  1
  Br  Br7  1  0.58151909  0.74943568  0.68675336  1
