# generated using pymatgen
data_LiI
_symmetry_space_group_name_H-M   'P 1'
_cell_length_a   15.76770431
_cell_length_b   15.76777848
_cell_length_c   4.43234426
_cell_angle_alpha   89.99993942
_cell_angle_beta   90.00025705
_cell_angle_gamma   90.00025379
_symmetry_Int_Tables_number   1
_chemical_formula_structural   LiI
_chemical_formula_sum   'Li16 I16'
_cell_volume   1101.97682493
_cell_formula_units_Z   16
loop_
 _symmetry_equiv_pos_site_id
 _symmetry_equiv_pos_as_xyz
  1  'x, y, z'
loop_
 _atom_site_type_symbol
 _atom_site_label
 _atom_site_symmetry_multiplicity
 _atom_site_fract_x
 _atom_site_fract_y
 _atom_site_fract_z
 _atom_site_occupancy
  Li  Li0  1  0.58193304  0.28060275  0.40519353  1
  Li  Li1  1  0.21939576  0.08193482  0.09480823  1
  Li  Li2  1  0.58193407  0.78060312  0.84482014  1
  Li  Li3  1  0.41806641  0.71939677  0.40518410  1
  Li  Li4  1  0.78060442  0.91806706  0.09480229  1
  Li  Li5  1  0.71939474  0.08193259  0.65519772  1
  Li  Li6  1  0.28060537  0.91806656  0.65519039  1
  Li  Li7  1  0.21939417  0.58193080  0.15519467  1
  Li  Li8  1  0.78060345  0.41806414  0.15519006  1
  Li  Li9  1  0.91806685  0.21939584  -0.09482027  1
  Li  Li10  1  0.28060585  0.41806940  0.59480452  1
  Li  Li11  1  0.08193154  0.78060327  -0.09481075  1
  Li  Li12  1  0.71939574  0.58193500  0.59481080  1
  Li  Li13  1  0.08193237  0.28060378  0.34481426  1
  Li  Li14  1  0.91806797  0.71939807  0.34480709  1
  Li  Li15  1  0.41806807  0.21939638  0.84481142  1
  I  I16  1  0.67265208  0.91365433  0.59735515  1
  I  I17  1  0.58634310  0.17264931  0.90264399  1
  I  I18  1  0.67265121  0.41365578  0.65263948  1
  I  I19  1  0.32734831  0.08634503  0.59736287  1
  I  I20  1  0.41365802  0.82735009  0.90263964  1
  I  I21  1  0.08634283  0.17265037  0.84735709  1
  I  I22  1  0.91365623  0.82735068  0.84735149  1
  I  I23  1  0.58634233  0.67265012  0.34736142  1
  I  I24  1  0.41365754  0.32735030  0.34736204  1
  I  I25  1  0.82734769  0.58634476  0.09736525  1
  I  I26  1  0.91365647  0.32734906  0.40263912  1
  I  I27  1  0.17265024  0.41365554  0.09736130  1
  I  I28  1  0.08634347  0.67264983  0.40264362  1
  I  I29  1  0.17265292  0.91365502  0.15263476  1
  I  I30  1  0.82734814  0.08634513  0.15264395  1
  I  I31  1  0.32734962  0.58634430  0.65264063  1
