# generated using pymatgen
data_LiI
_symmetry_space_group_name_H-M   'P 1'
_cell_length_a   11.56215548
_cell_length_b   11.56223477
_cell_length_c   12.78661002
_cell_angle_alpha   90.02391270
_cell_angle_beta   89.97582517
_cell_angle_gamma   120.07322895
_symmetry_Int_Tables_number   1
_chemical_formula_structural   LiI
_chemical_formula_sum   'Li18 I18'
_cell_volume   1479.26386422
_cell_formula_units_Z   18
loop_
 _symmetry_equiv_pos_site_id
 _symmetry_equiv_pos_as_xyz
  1  'x, y, z'
loop_
 _atom_site_type_symbol
 _atom_site_label
 _atom_site_symmetry_multiplicity
 _atom_site_fract_x
 _atom_site_fract_y
 _atom_site_fract_z
 _atom_site_occupancy
  Li  Li0  1  0.66490078  0.58267684  0.39389333  1
  Li  Li1  1  0.66495180  0.08193681  0.89389774  1
  Li  Li2  1  0.75065934  0.00176520  0.56056172  1
  Li  Li3  1  0.25105982  0.24964102  0.56060326  1
  Li  Li4  1  0.08369361  0.41560686  0.72727375  1
  Li  Li5  1  0.41702809  0.08227322  0.39394037  1
  Li  Li6  1  0.25139237  0.00171118  0.06056212  1
  Li  Li7  1  0.75036018  0.74893646  0.06060616  1
  Li  Li8  1  -0.08193785  0.33504380  0.39389826  1
  Li  Li9  1  -0.08227154  0.58297468  0.89393753  1
  Li  Li10  1  0.99823455  0.24934437  0.06055891  1
  Li  Li11  1  0.99828788  0.74860140  0.56056465  1
  Li  Li12  1  0.58472731  0.66837658  0.72722759  1
  Li  Li13  1  0.58439616  0.91630732  0.22727220  1
  Li  Li14  1  0.41732906  0.33509972  0.89389466  1
  Li  Li15  1  0.08399455  0.66843104  0.22722773  1
  Li  Li16  1  0.33156584  0.91601147  0.72722739  1
  Li  Li17  1  0.33162042  0.41526715  0.22723063  1
  I  I18  1  0.56819453  -0.09731181  0.72643554  1
  I  I19  1  0.56824800  0.66551736  0.22677517  1
  I  I20  1  0.43064439  0.09847243  0.89309843  1
  I  I21  1  0.66823850  0.56980230  0.89308205  1
  I  I22  1  0.76352854  -0.00157285  0.05974584  1
  I  I23  1  0.09686357  0.66509501  0.72641291  1
  I  I24  1  0.66781762  0.09841792  0.39344435  1
  I  I25  1  0.43019374  0.33175927  0.39308097  1
  I  I26  1  0.33448004  0.43175564  0.72678027  1
  I  I27  1  0.33490736  -0.09685802  0.22641600  1
  I  I28  1  -0.09847232  0.56935606  0.39310011  1
  I  I29  1  -0.09841911  0.33218976  0.89344429  1
  I  I30  1  0.00114912  0.76508441  0.06011219  1
  I  I31  1  0.00157316  0.23647582  0.55974760  1
  I  I32  1  0.09730760  0.43180111  0.22643281  1
  I  I33  1  0.76397813  0.76513787  0.55976677  1
  I  I34  1  0.23486073  0.23601886  0.05977070  1
  I  I35  1  0.23491405  -0.00114623  0.56010979  1
