# generated using pymatgen
data_LiBr
_symmetry_space_group_name_H-M   'P 1'
_cell_length_a   4.49958875
_cell_length_b   7.85143055
_cell_length_c   5.49852738
_cell_angle_alpha   90.00000815
_cell_angle_beta   90.60551831
_cell_angle_gamma   90.00000337
_symmetry_Int_Tables_number   1
_chemical_formula_structural   LiBr
_chemical_formula_sum   'Li4 Br4'
_cell_volume   194.24227400
_cell_formula_units_Z   4
loop_
 _symmetry_equiv_pos_site_id
 _symmetry_equiv_pos_as_xyz
  1  'x, y, z'
loop_
 _atom_site_type_symbol
 _atom_site_label
 _atom_site_symmetry_multiplicity
 _atom_site_fract_x
 _atom_site_fract_y
 _atom_site_fract_z
 _atom_site_occupancy
  Li  Li0  1  0.26905197  0.66660364  0.20207136  1
  Li  Li1  1  0.76905230  0.16660347  0.20207106  1
  Li  Li2  1  0.26905199  0.33339666  0.70206790  1
  Li  Li3  1  0.76905259  0.83339631  0.70206702  1
  Br  Br4  1  0.26977397  0.33444813  0.20225555  1
  Br  Br5  1  0.76977098  0.83444861  0.20225548  1
  Br  Br6  1  0.26977419  0.66555210  0.70225608  1
  Br  Br7  1  0.76977121  0.16555107  0.70225606  1
