# generated using pymatgen
data_LiBr
_symmetry_space_group_name_H-M   'P 1'
_cell_length_a   3.87410193
_cell_length_b   6.68783520
_cell_length_c   6.34490429
_cell_angle_alpha   90.00010978
_cell_angle_beta   91.63217556
_cell_angle_gamma   89.99997564
_symmetry_Int_Tables_number   1
_chemical_formula_structural   LiBr
_chemical_formula_sum   'Li4 Br4'
_cell_volume   164.32568175
_cell_formula_units_Z   4
loop_
 _symmetry_equiv_pos_site_id
 _symmetry_equiv_pos_as_xyz
  1  'x, y, z'
loop_
 _atom_site_type_symbol
 _atom_site_label
 _atom_site_symmetry_multiplicity
 _atom_site_fract_x
 _atom_site_fract_y
 _atom_site_fract_z
 _atom_site_occupancy
  Li  Li0  1  0.24283088  0.00269365  0.54914572  1
  Li  Li1  1  0.74282935  0.50269399  0.54914615  1
  Li  Li2  1  0.24283149  -0.00269368  0.04914649  1
  Li  Li3  1  0.74282967  0.49730599  0.04914691  1
  Br  Br4  1  0.24314210  0.33335829  0.29926915  1
  Br  Br5  1  0.74314246  0.83335830  0.29926911  1
  Br  Br6  1  0.24314192  0.66664174  0.79926918  1
  Br  Br7  1  0.74314223  0.16664172  0.79926913  1
