# generated using pymatgen
data_LiBr
_symmetry_space_group_name_H-M   'P 1'
_cell_length_a   4.16714903
_cell_length_b   4.16691760
_cell_length_c   10.21394580
_cell_angle_alpha   90.00955132
_cell_angle_beta   89.98787154
_cell_angle_gamma   119.99669396
_symmetry_Int_Tables_number   1
_chemical_formula_structural   LiBr
_chemical_formula_sum   'Li3 Br3'
_cell_volume   153.60048306
_cell_formula_units_Z   3
loop_
 _symmetry_equiv_pos_site_id
 _symmetry_equiv_pos_as_xyz
  1  'x, y, z'
loop_
 _atom_site_type_symbol
 _atom_site_label
 _atom_site_symmetry_multiplicity
 _atom_site_fract_x
 _atom_site_fract_y
 _atom_site_fract_z
 _atom_site_occupancy
  Li  Li0  1  0.00050466  0.66671522  0.22381326  1
  Li  Li1  1  0.33317702  0.33358319  0.89063820  1
  Li  Li2  1  0.66649847  -0.00014507  0.55718500  1
  Br  Br3  1  0.33379104  0.33349939  0.14046901  1
  Br  Br4  1  0.66621059  0.00007995  0.80702447  1
  Br  Br5  1  -0.00018179  0.66626734  0.47374350  1
