# generated using pymatgen
data_LiI
_symmetry_space_group_name_H-M   'P 1'
_cell_length_a   12.58509262
_cell_length_b   12.58613585
_cell_length_c   7.80486559
_cell_angle_alpha   89.99879862
_cell_angle_beta   90.00349646
_cell_angle_gamma   89.99969470
_symmetry_Int_Tables_number   1
_chemical_formula_structural   LiI
_chemical_formula_sum   'Li16 I16'
_cell_volume   1236.27264295
_cell_formula_units_Z   16
loop_
 _symmetry_equiv_pos_site_id
 _symmetry_equiv_pos_as_xyz
  1  'x, y, z'
loop_
 _atom_site_type_symbol
 _atom_site_label
 _atom_site_symmetry_multiplicity
 _atom_site_fract_x
 _atom_site_fract_y
 _atom_site_fract_z
 _atom_site_occupancy
  Li  Li0  1  0.25627309  0.88788551  0.08827709  1
  Li  Li1  1  0.61212072  0.75627617  0.08829687  1
  Li  Li2  1  0.24373724  0.38786527  0.41169476  1
  Li  Li3  1  0.88787558  0.74371902  0.91169181  1
  Li  Li4  1  0.25626527  0.11211589  0.58826344  1
  Li  Li5  1  0.11211084  0.25628050  0.91172825  1
  Li  Li6  1  0.24375045  0.61212285  0.91171476  1
  Li  Li7  1  0.75627340  0.38788911  0.91170864  1
  Li  Li8  1  0.38788089  0.75628719  0.58827581  1
  Li  Li9  1  0.74371894  0.88787932  0.58830785  1
  Li  Li10  1  0.61213410  0.24372605  0.58831456  1
  Li  Li11  1  0.74371419  0.11212163  0.08832058  1
  Li  Li12  1  0.38787664  0.24372076  0.08826728  1
  Li  Li13  1  0.11212257  0.74372004  0.41173712  1
  Li  Li14  1  0.75627853  0.61212371  0.41167684  1
  Li  Li15  1  0.88787661  0.25627704  0.41171700  1
  I  I16  1  0.91218494  0.74251470  0.55650779  1
  I  I17  1  0.75749198  0.41215088  0.55648145  1
  I  I18  1  0.58782040  0.24252361  -0.05650792  1
  I  I19  1  0.74249746  0.08784362  0.44350437  1
  I  I20  1  0.91218423  0.25746972  0.05648158  1
  I  I21  1  0.25748389  0.91216898  0.44352171  1
  I  I22  1  0.58783628  0.75747844  0.44350149  1
  I  I23  1  0.41215235  0.24252130  0.44349969  1
  I  I24  1  0.24250697  0.41215458  0.05649680  1
  I  I25  1  0.08782402  0.74252419  0.05648119  1
  I  I26  1  0.75750694  0.58783560  0.05649827  1
  I  I27  1  0.08782778  0.25748321  0.55649555  1
  I  I28  1  0.24252111  0.58784651  0.55649287  1
  I  I29  1  0.25747971  0.08783834  -0.05647225  1
  I  I30  1  0.41216992  0.75748128  -0.05648731  1
  I  I31  1  0.74250298  0.91215498  -0.05648793  1
