# generated using pymatgen
data_LiBr
_symmetry_space_group_name_H-M   'P 1'
_cell_length_a   7.08766010
_cell_length_b   7.08765002
_cell_length_c   8.48875965
_cell_angle_alpha   89.99221674
_cell_angle_beta   89.99519075
_cell_angle_gamma   89.99972482
_symmetry_Int_Tables_number   1
_chemical_formula_structural   LiBr
_chemical_formula_sum   'Li8 Br8'
_cell_volume   426.43159834
_cell_formula_units_Z   8
loop_
 _symmetry_equiv_pos_site_id
 _symmetry_equiv_pos_as_xyz
  1  'x, y, z'
loop_
 _atom_site_type_symbol
 _atom_site_label
 _atom_site_symmetry_multiplicity
 _atom_site_fract_x
 _atom_site_fract_y
 _atom_site_fract_z
 _atom_site_occupancy
  Li  Li0  1  0.16966004  0.33053406  -0.12530337  1
  Li  Li1  1  0.16943859  0.33032778  0.37472153  1
  Li  Li2  1  0.66969136  0.16944911  0.62553166  1
  Li  Li3  1  0.83053350  0.66963965  0.37483370  1
  Li  Li4  1  0.33037793  0.83054002  0.62491597  1
  Li  Li5  1  0.83034428  0.66944986  -0.12513516  1
  Li  Li6  1  0.66944423  0.16969770  0.12552299  1
  Li  Li7  1  0.33053202  0.83038085  0.12492268  1
  Br  Br8  1  0.30782622  0.19229526  0.62452884  1
  Br  Br9  1  0.30768289  0.19216972  0.12455925  1
  Br  Br10  1  0.80783278  0.30769417  0.87565177  1
  Br  Br11  1  0.69229359  0.80782275  0.12464867  1
  Br  Br12  1  0.19218066  0.69230412  0.87513934  1
  Br  Br13  1  0.69217612  0.80768030  0.62467376  1
  Br  Br14  1  0.80768637  0.30783237  0.37564423  1
  Br  Br15  1  0.19229941  0.69218229  0.37514414  1
