# generated using pymatgen
data_KI
_symmetry_space_group_name_H-M   'P 1'
_cell_length_a   7.17161300
_cell_length_b   7.18551231
_cell_length_c   10.12843191
_cell_angle_alpha   90.00000196
_cell_angle_beta   45.22245049
_cell_angle_gamma   90.00000189
_symmetry_Int_Tables_number   1
_chemical_formula_structural   KI
_chemical_formula_sum   'K4 I4'
_cell_volume   370.49420071
_cell_formula_units_Z   4
loop_
 _symmetry_equiv_pos_site_id
 _symmetry_equiv_pos_as_xyz
  1  'x, y, z'
loop_
 _atom_site_type_symbol
 _atom_site_label
 _atom_site_symmetry_multiplicity
 _atom_site_fract_x
 _atom_site_fract_y
 _atom_site_fract_z
 _atom_site_occupancy
  K  K0  1  0.24946522  0.74676745  0.50177620  1
  K  K1  1  0.75053471  0.24676745  -0.00177645  1
  K  K2  1  0.75053478  0.25323254  0.49822380  1
  K  K3  1  0.24946529  0.75323256  0.00177645  1
  I  I4  1  0.25044097  0.25267054  0.99798216  1
  I  I5  1  0.74955889  0.75267052  0.50201800  1
  I  I6  1  0.74955902  0.74732946  0.00201784  1
  I  I7  1  0.25044111  0.24732947  0.49798200  1
