# generated using pymatgen
data_LiBr
_symmetry_space_group_name_H-M   'P 1'
_cell_length_a   4.29495094
_cell_length_b   4.29492294
_cell_length_c   9.28265918
_cell_angle_alpha   89.97399200
_cell_angle_beta   90.01782593
_cell_angle_gamma   119.98815404
_symmetry_Int_Tables_number   1
_chemical_formula_structural   LiBr
_chemical_formula_sum   'Li3 Br3'
_cell_volume   148.30930598
_cell_formula_units_Z   3
loop_
 _symmetry_equiv_pos_site_id
 _symmetry_equiv_pos_as_xyz
  1  'x, y, z'
loop_
 _atom_site_type_symbol
 _atom_site_label
 _atom_site_symmetry_multiplicity
 _atom_site_fract_x
 _atom_site_fract_y
 _atom_site_fract_z
 _atom_site_occupancy
  Li  Li0  1  0.33448696  0.33528667  0.22463218  1
  Li  Li1  1  0.66471884  -0.00062376  0.55867177  1
  Li  Li2  1  0.00072237  0.66558598  0.89189280  1
  Br  Br3  1  0.33214008  0.33330370  0.49471900  1
  Br  Br4  1  0.66675155  -0.00131757  0.82855908  1
  Br  Br5  1  0.00118021  0.66776499  0.16159868  1
