# generated using pymatgen
data_LiBr
_symmetry_space_group_name_H-M   'P 1'
_cell_length_a   11.53432600
_cell_length_b   11.53448729
_cell_length_c   7.92137413
_cell_angle_alpha   90.12573470
_cell_angle_beta   89.87143784
_cell_angle_gamma   120.05383085
_symmetry_Int_Tables_number   1
_chemical_formula_structural   LiBr
_chemical_formula_sum   'Li18 Br18'
_cell_volume   912.18812969
_cell_formula_units_Z   18
loop_
 _symmetry_equiv_pos_site_id
 _symmetry_equiv_pos_as_xyz
  1  'x, y, z'
loop_
 _atom_site_type_symbol
 _atom_site_label
 _atom_site_symmetry_multiplicity
 _atom_site_fract_x
 _atom_site_fract_y
 _atom_site_fract_z
 _atom_site_occupancy
  Li  Li0  1  -0.07314531  0.46424442  0.01195807  1
  Li  Li1  1  -0.07369560  0.46332684  0.51162965  1
  Li  Li2  1  0.86978312  0.74050979  0.17797807  1
  Li  Li3  1  0.87005742  0.13062298  0.17928331  1
  Li  Li4  1  0.20362802  0.79620223  0.34655182  1
  Li  Li5  1  0.53658995  0.46303257  0.01247259  1
  Li  Li6  1  0.87047995  0.74037838  0.67794005  1
  Li  Li7  1  0.86939175  0.12995572  0.67927438  1
  Li  Li8  1  0.53665531  0.07367036  0.01165352  1
  Li  Li9  1  0.53693653  0.46339935  0.51247124  1
  Li  Li10  1  0.25947692  0.13021850  0.67793847  1
  Li  Li11  1  0.25960529  0.12950877  0.17789615  1
  Li  Li12  1  0.20331011  0.40638639  0.34551424  1
  Li  Li13  1  0.20378048  0.79635451  0.84653469  1
  Li  Li14  1  0.53571963  0.07313219  0.51199530  1
  Li  Li15  1  0.20295187  0.40646570  0.84560138  1
  Li  Li16  1  0.59356624  0.79706790  0.34563157  1
  Li  Li17  1  0.59365044  0.79670840  0.84556022  1
  Br  Br18  1  0.45417551  0.54631963  0.27367773  1
  Br  Br19  1  0.45429906  -0.09252641  0.77260033  1
  Br  Br20  1  0.78652351  0.21251999  0.44036636  1
  Br  Br21  1  0.42531974  0.21283386  0.43837297  1
  Br  Br22  1  0.11994795  0.24084434  0.60593684  1
  Br  Br23  1  0.45386362  -0.09242970  0.27226958  1
  Br  Br24  1  0.42530404  0.21246281  0.93827628  1
  Br  Br25  1  0.78716378  0.57466920  0.93842636  1
  Br  Br26  1  0.09250338  0.54569580  0.27256316  1
  Br  Br27  1  0.09241458  0.54613060  0.77221995  1
  Br  Br28  1  0.78746939  0.21345405  0.94036343  1
  Br  Br29  1  0.78752397  0.57469200  0.43832476  1
  Br  Br30  1  0.75935074  0.87943841  0.60598185  1
  Br  Br31  1  0.75920107  0.88008032  0.10596043  1
  Br  Br32  1  0.45371056  0.54584603  0.77368661  1
  Br  Br33  1  0.12057691  0.87867008  0.10755749  1
  Br  Br34  1  0.12132699  0.87943068  0.60756007  1
  Br  Br35  1  0.12058309  0.24068331  0.10596059  1
