# generated using pymatgen
data_LiBr
_symmetry_space_group_name_H-M   'P 1'
_cell_length_a   11.56857039
_cell_length_b   11.56860025
_cell_length_c   7.78495455
_cell_angle_alpha   90.00073278
_cell_angle_beta   89.99921347
_cell_angle_gamma   120.00715451
_symmetry_Int_Tables_number   1
_chemical_formula_structural   LiBr
_chemical_formula_sum   'Li18 Br18'
_cell_volume   902.22718085
_cell_formula_units_Z   18
loop_
 _symmetry_equiv_pos_site_id
 _symmetry_equiv_pos_as_xyz
  1  'x, y, z'
loop_
 _atom_site_type_symbol
 _atom_site_label
 _atom_site_symmetry_multiplicity
 _atom_site_fract_x
 _atom_site_fract_y
 _atom_site_fract_z
 _atom_site_occupancy
  Li  Li0  1  0.12963757  0.87065152  0.42277621  1
  Li  Li1  1  0.12966739  0.25896642  0.92268202  1
  Li  Li2  1  0.46268004  0.53702658  0.58944229  1
  Li  Li3  1  0.07428440  0.53729409  0.58939882  1
  Li  Li4  1  0.79603875  0.59238305  0.75606604  1
  Li  Li5  1  0.12937099  0.25904732  0.42272860  1
  Li  Li6  1  0.07436648  0.53699948  0.08934894  1
  Li  Li7  1  0.46270464  0.92571436  0.08939733  1
  Li  Li8  1  0.74103320  0.87033320  0.42268254  1
  Li  Li9  1  0.74095184  0.87063017  0.92273009  1
  Li  Li10  1  0.46297359  0.53732080  0.08944234  1
  Li  Li11  1  0.46300009  0.92563202  0.58934770  1
  Li  Li12  1  0.40769983  0.20366535  0.75601897  1
  Li  Li13  1  0.40761748  0.20396123  0.25606846  1
  Li  Li14  1  0.12934867  0.87036304  0.92277635  1
  Li  Li15  1  0.79601507  0.20369569  0.25611006  1
  Li  Li16  1  0.79630602  0.20398583  0.75610979  1
  Li  Li17  1  0.79633545  0.59230295  0.25601635  1
  Br  Br18  1  0.54704813  0.09326081  0.83033012  1
  Br  Br19  1  0.54705932  0.45377542  0.33037677  1
  Br  Br20  1  0.24007191  0.11961960  -0.00299987  1
  Br  Br21  1  0.87962094  0.76003394  -0.00293992  1
  Br  Br22  1  0.57329932  0.78704677  0.16372791  1
  Br  Br23  1  0.90663255  0.45371324  0.83039537  1
  Br  Br24  1  0.87955818  0.11960800  0.49704336  1
  Br  Br25  1  0.23996591  0.12037872  0.49706373  1
  Br  Br26  1  0.54622515  0.45294056  0.83037751  1
  Br  Br27  1  0.54628688  0.09336655  0.33039311  1
  Br  Br28  1  0.88038135  0.75992913  0.49699761  1
  Br  Br29  1  0.88039312  0.12044278  -0.00295631  1
  Br  Br30  1  0.21289208  0.78627353  0.16371040  1
  Br  Br31  1  0.21295246  0.42669911  0.66372606  1
  Br  Br32  1  0.90673702  0.45295166  0.33033186  1
  Br  Br33  1  0.57340209  0.78628290  0.66366445  1
  Br  Br34  1  0.21371651  0.42659772  0.16366255  1
  Br  Br35  1  0.21372555  0.78710648  0.66371057  1
