# generated using pymatgen
data_LiBr
_symmetry_space_group_name_H-M   'P 1'
_cell_length_a   4.37603468
_cell_length_b   7.35394104
_cell_length_c   6.49670417
_cell_angle_alpha   89.99917911
_cell_angle_beta   89.99995118
_cell_angle_gamma   89.99951059
_symmetry_Int_Tables_number   1
_chemical_formula_structural   LiBr
_chemical_formula_sum   'Li4 Br4'
_cell_volume   209.07109336
_cell_formula_units_Z   4
loop_
 _symmetry_equiv_pos_site_id
 _symmetry_equiv_pos_as_xyz
  1  'x, y, z'
loop_
 _atom_site_type_symbol
 _atom_site_label
 _atom_site_symmetry_multiplicity
 _atom_site_fract_x
 _atom_site_fract_y
 _atom_site_fract_z
 _atom_site_occupancy
  Li  Li0  1  0.75398057  0.34231981  0.33260524  1
  Li  Li1  1  0.24601428  0.84232707  0.16739368  1
  Li  Li2  1  0.74601876  0.65767482  0.83260708  1
  Li  Li3  1  0.25398662  0.15767821  0.66739501  1
  Br  Br4  1  0.24644541  0.82572050  0.76763826  1
  Br  Br5  1  0.75355349  0.32571781  0.73236233  1
  Br  Br6  1  0.25355335  0.17428248  0.26763683  1
  Br  Br7  1  0.74644751  0.67427930  0.23236157  1
