# generated using pymatgen
data_NaI
_symmetry_space_group_name_H-M   'P 1'
_cell_length_a   8.24359376
_cell_length_b   8.96808508
_cell_length_c   7.77462387
_cell_angle_alpha   89.99950154
_cell_angle_beta   89.99997494
_cell_angle_gamma   89.99998111
_symmetry_Int_Tables_number   1
_chemical_formula_structural   NaI
_chemical_formula_sum   'Na8 I8'
_cell_volume   574.77211352
_cell_formula_units_Z   8
loop_
 _symmetry_equiv_pos_site_id
 _symmetry_equiv_pos_as_xyz
  1  'x, y, z'
loop_
 _atom_site_type_symbol
 _atom_site_label
 _atom_site_symmetry_multiplicity
 _atom_site_fract_x
 _atom_site_fract_y
 _atom_site_fract_z
 _atom_site_occupancy
  Na  Na0  1  0.74959984  0.87339665  0.91732721  1
  Na  Na1  1  0.74964305  0.62659475  0.41727063  1
  Na  Na2  1  0.24959988  0.62660472  0.08266408  1
  Na  Na3  1  0.75035726  0.12659607  0.41727926  1
  Na  Na4  1  0.25035691  0.37340527  0.58272935  1
  Na  Na5  1  0.75040010  0.37339527  0.91733594  1
  Na  Na6  1  0.24964284  0.87340392  0.58272078  1
  Na  Na7  1  0.25040016  0.12660335  0.08267279  1
  I  I8  1  0.49841466  0.12377231  0.74878708  1
  I  I9  1  0.49840596  0.37624342  0.24878735  1
  I  I10  1  -0.00158402  0.37622828  0.25121596  1
  I  I11  1  0.00159290  0.87624403  0.24878417  1
  I  I12  1  0.50159403  0.62375655  0.75121266  1
  I  I13  1  0.00158399  0.62377173  0.74878399  1
  I  I14  1  -0.00159286  0.12375599  0.75121583  1
  I  I15  1  0.50158530  0.87622768  0.25121291  1
