# generated using pymatgen
data_KI
_symmetry_space_group_name_H-M   'P 1'
_cell_length_a   12.79307671
_cell_length_b   9.76630082
_cell_length_c   4.89766616
_cell_angle_alpha   89.99971314
_cell_angle_beta   89.99996818
_cell_angle_gamma   90.00003003
_symmetry_Int_Tables_number   1
_chemical_formula_structural   KI
_chemical_formula_sum   'K4 I4'
_cell_volume   611.91948280
_cell_formula_units_Z   4
loop_
 _symmetry_equiv_pos_site_id
 _symmetry_equiv_pos_as_xyz
  1  'x, y, z'
loop_
 _atom_site_type_symbol
 _atom_site_label
 _atom_site_symmetry_multiplicity
 _atom_site_fract_x
 _atom_site_fract_y
 _atom_site_fract_z
 _atom_site_occupancy
  K  K0  1  0.74882475  0.98240667  -0.00008486  1
  K  K1  1  0.75117483  0.48240670  0.00008554  1
  K  K2  1  0.25117487  0.01759322  -0.00008463  1
  K  K3  1  0.24882484  0.51759337  0.00008400  1
  I  I4  1  0.76010763  0.73304910  0.49988717  1
  I  I5  1  0.73989262  0.23304901  0.50011473  1
  I  I6  1  0.23989267  0.26695097  0.49988592  1
  I  I7  1  0.26010778  0.76695096  0.50011215  1
