# generated using pymatgen
data_LiBr
_symmetry_space_group_name_H-M   'P 1'
_cell_length_a   4.17177532
_cell_length_b   7.27049166
_cell_length_c   6.74569776
_cell_angle_alpha   89.99998524
_cell_angle_beta   90.32409922
_cell_angle_gamma   90.00006852
_symmetry_Int_Tables_number   1
_chemical_formula_structural   LiBr
_chemical_formula_sum   'Li4 Br4'
_cell_volume   204.59952508
_cell_formula_units_Z   4
loop_
 _symmetry_equiv_pos_site_id
 _symmetry_equiv_pos_as_xyz
  1  'x, y, z'
loop_
 _atom_site_type_symbol
 _atom_site_label
 _atom_site_symmetry_multiplicity
 _atom_site_fract_x
 _atom_site_fract_y
 _atom_site_fract_z
 _atom_site_occupancy
  Li  Li0  1  0.22397920  0.16890112  0.23681931  1
  Li  Li1  1  0.72398410  0.66889408  0.23682744  1
  Li  Li2  1  0.22398017  0.83109908  0.73682042  1
  Li  Li3  1  0.72398092  0.33110597  0.73682956  1
  Br  Br4  1  0.72289845  0.66356766  0.61563881  1
  Br  Br5  1  0.22289507  0.16356661  0.61564128  1
  Br  Br6  1  0.72289829  0.33643251  0.11563845  1
  Br  Br7  1  0.22289856  0.83643299  0.11564161  1
