# generated using pymatgen
data_LiBr
_symmetry_space_group_name_H-M   'P 1'
_cell_length_a   11.60309400
_cell_length_b   11.60311018
_cell_length_c   8.51662674
_cell_angle_alpha   90.00202004
_cell_angle_beta   89.99791686
_cell_angle_gamma   119.99933282
_symmetry_Int_Tables_number   1
_chemical_formula_structural   LiBr
_chemical_formula_sum   'Li18 Br18'
_cell_volume   993.00032712
_cell_formula_units_Z   18
loop_
 _symmetry_equiv_pos_site_id
 _symmetry_equiv_pos_as_xyz
  1  'x, y, z'
loop_
 _atom_site_type_symbol
 _atom_site_label
 _atom_site_symmetry_multiplicity
 _atom_site_fract_x
 _atom_site_fract_y
 _atom_site_fract_z
 _atom_site_occupancy
  Li  Li0  1  0.36463658  0.40456989  0.59364144  1
  Li  Li1  1  0.36461826  0.96005746  0.09365540  1
  Li  Li2  1  0.92876483  0.30195525  0.76039741  1
  Li  Li3  1  0.37319558  0.07121927  0.76038721  1
  Li  Li4  1  0.26219397  0.29353348  0.92726592  1
  Li  Li5  1  0.59547748  0.96007587  0.59362893  1
  Li  Li6  1  0.37318932  0.30197078  0.26041285  1
  Li  Li7  1  0.92878149  0.62680267  0.26038685  1
  Li  Li8  1  0.03994400  0.63538200  0.59365519  1
  Li  Li9  1  0.03992329  0.40452477  0.09363044  1
  Li  Li10  1  0.69804403  0.07123462  0.26039686  1
  Li  Li11  1  0.69803015  0.62680988  0.76041288  1
  Li  Li12  1  0.70646295  0.96865183  0.92728792  1
  Li  Li13  1  0.70646783  0.73780757  0.42726502  1
  Li  Li14  1  0.59542859  0.63536377  0.09364108  1
  Li  Li15  1  0.26216103  0.96863130  0.42727316  1
  Li  Li16  1  0.03136805  0.73783814  0.92727339  1
  Li  Li17  1  0.03134986  0.29353584  0.42728941  1
  Br  Br18  1  0.12069935  0.25804393  0.68247100  1
  Br  Br19  1  0.12067955  0.86264730  0.18249387  1
  Br  Br20  1  0.07534441  0.54600396  0.84897902  1
  Br  Br21  1  0.47068845  0.92468441  0.84897917  1
  Br  Br22  1  0.40861153  0.19595479  0.01569574  1
  Br  Br23  1  0.74193389  0.86262715  0.68249400  1
  Br  Br24  1  0.47066471  0.54602427  0.34899671  1
  Br  Br25  1  0.07531661  0.52931109  0.34898008  1
  Br  Br26  1  0.13735281  0.87931941  0.68249393  1
  Br  Br27  1  0.13737144  0.25806460  0.18249405  1
  Br  Br28  1  0.45399574  0.92465564  0.34897882  1
  Br  Br29  1  0.45397576  0.52933568  0.84899578  1
  Br  Br30  1  0.80401127  0.21266754  0.01568782  1
  Br  Br31  1  0.80404686  0.59138984  0.51569565  1
  Br  Br32  1  0.74195418  0.87930038  0.18246928  1
  Br  Br33  1  0.40863878  0.21265520  0.51567159  1
  Br  Br34  1  0.78734473  0.59136171  0.01567262  1
  Br  Br35  1  0.78733262  0.19598868  0.51568763  1
