# generated using pymatgen
data_LiBr
_symmetry_space_group_name_H-M   'P 1'
_cell_length_a   11.73956997
_cell_length_b   11.73836508
_cell_length_c   7.10765792
_cell_angle_alpha   90.00234868
_cell_angle_beta   89.98926587
_cell_angle_gamma   120.03932100
_symmetry_Int_Tables_number   1
_chemical_formula_structural   LiBr
_chemical_formula_sum   'Li18 Br18'
_cell_volume   847.90018054
_cell_formula_units_Z   18
loop_
 _symmetry_equiv_pos_site_id
 _symmetry_equiv_pos_as_xyz
  1  'x, y, z'
loop_
 _atom_site_type_symbol
 _atom_site_label
 _atom_site_symmetry_multiplicity
 _atom_site_fract_x
 _atom_site_fract_y
 _atom_site_fract_z
 _atom_site_occupancy
  Li  Li0  1  0.33230306  0.22631297  0.41560814  1
  Li  Li1  1  0.77257404  0.66549284  0.91761011  1
  Li  Li2  1  0.66769686  0.77368810  0.58439227  1
  Li  Li3  1  0.89406888  0.66783509  0.41576893  1
  Li  Li4  1  0.89302324  0.22745016  0.91768911  1
  Li  Li5  1  0.22634112  0.89409284  0.58431367  1
  Li  Li6  1  0.44026910  0.43921970  0.74901213  1
  Li  Li7  1  0.77365859  0.10590826  0.41568574  1
  Li  Li8  1  0.10592889  0.33215980  0.58423151  1
  Li  Li9  1  0.55972887  0.56077995  0.25098640  1
  Li  Li10  1  0.10697452  0.77255156  0.08231057  1
  Li  Li11  1  0.56076370  0.00112525  0.74908560  1
  Li  Li12  1  0.43923574  0.99887363  0.25091579  1
  Li  Li13  1  0.22742560  0.33450342  0.08239025  1
  Li  Li14  1  0.99900478  0.55969629  0.74893627  1
  Li  Li15  1  0.00100180  0.44030711  0.25106173  1
  Li  Li16  1  0.33434737  0.10699014  0.91777789  1
  Li  Li17  1  0.66565156  0.89300943  0.08222339  1
  Br  Br18  1  0.33380313  0.86628773  0.91630836  1
  Br  Br19  1  0.13419066  0.66716385  0.41727130  1
  Br  Br20  1  0.66619488  0.13371310  0.08369170  1
  Br  Br21  1  0.53243443  0.66613394  0.91611261  1
  Br  Br22  1  0.53315015  0.86604768  0.41716789  1
  Br  Br23  1  0.86647919  0.53266370  0.08378117  1
  Br  Br24  1  0.80018288  0.80064236  0.24948772  1
  Br  Br25  1  0.13352548  0.46733758  0.91621962  1
  Br  Br26  1  0.46756576  0.33386665  0.08388765  1
  Br  Br27  1  0.19981745  0.19935581  0.75051199  1
  Br  Br28  1  0.46685100  0.13395275  0.58283075  1
  Br  Br29  1  0.19911423  -0.00051793  0.24938513  1
  Br  Br30  1  0.80088493  0.00051910  0.75061510  1
  Br  Br31  1  0.86581284  0.33283890  0.58273137  1
  Br  Br32  1  0.00045105  0.19962250  0.24957074  1
  Br  Br33  1  -0.00045316  0.80037670  0.75042822  1
  Br  Br34  1  0.33290465  0.46704972  0.41707998  1
  Br  Br35  1  0.66709275  0.53294935  0.58291921  1
