# generated using pymatgen
data_LiBr
_symmetry_space_group_name_H-M   'P 1'
_cell_length_a   7.24914828
_cell_length_b   7.24914774
_cell_length_c   6.74421553
_cell_angle_alpha   90.00013778
_cell_angle_beta   89.99988774
_cell_angle_gamma   120.00159163
_symmetry_Int_Tables_number   1
_chemical_formula_structural   LiBr
_chemical_formula_sum   'Li6 Br6'
_cell_volume   306.92272213
_cell_formula_units_Z   6
loop_
 _symmetry_equiv_pos_site_id
 _symmetry_equiv_pos_as_xyz
  1  'x, y, z'
loop_
 _atom_site_type_symbol
 _atom_site_label
 _atom_site_symmetry_multiplicity
 _atom_site_fract_x
 _atom_site_fract_y
 _atom_site_fract_z
 _atom_site_occupancy
  Li  Li0  1  0.33320055  -0.00029080  0.35959378  1
  Li  Li1  1  0.00029608  0.33349458  0.35958478  1
  Li  Li2  1  0.33319905  0.33349312  0.85958958  1
  Li  Li3  1  0.66650719  -0.00029840  0.85958788  1
  Li  Li4  1  0.00029022  0.66679800  0.85959063  1
  Li  Li5  1  0.66650710  0.66680393  0.35958796  1
  Br  Br6  1  0.66698451  0.66683352  0.73810764  1
  Br  Br7  1  0.33317312  0.00015373  0.73811460  1
  Br  Br8  1  0.66697458  0.00014602  0.23810780  1
  Br  Br9  1  -0.00015332  0.66682802  0.23811215  1
  Br  Br10  1  0.33316554  0.33301420  0.23811019  1
  Br  Br11  1  -0.00014461  0.33302409  0.73810772  1
