# generated using pymatgen
data_LiI
_symmetry_space_group_name_H-M   'P 1'
_cell_length_a   8.86942899
_cell_length_b   8.87050186
_cell_length_c   9.21466016
_cell_angle_alpha   90.00014204
_cell_angle_beta   89.99992422
_cell_angle_gamma   120.02284211
_symmetry_Int_Tables_number   1
_chemical_formula_structural   LiI
_chemical_formula_sum   'Li6 I6'
_cell_volume   627.70241300
_cell_formula_units_Z   6
loop_
 _symmetry_equiv_pos_site_id
 _symmetry_equiv_pos_as_xyz
  1  'x, y, z'
loop_
 _atom_site_type_symbol
 _atom_site_label
 _atom_site_symmetry_multiplicity
 _atom_site_fract_x
 _atom_site_fract_y
 _atom_site_fract_z
 _atom_site_occupancy
  Li  Li0  1  0.45647102  0.14771880  0.83011487  1
  Li  Li1  1  0.30878208  0.45651429  0.49689349  1
  Li  Li2  1  0.69121606  0.54348291  0.49689523  1
  Li  Li3  1  0.14773273  0.69124845  0.16350819  1
  Li  Li4  1  0.85227100  0.30875559  0.16350362  1
  Li  Li5  1  0.54352743  0.85228040  0.83011714  1
  I  I6  1  0.41544789  0.22669781  0.55821356  1
  I  I7  1  0.18877668  0.41551462  0.22487033  1
  I  I8  1  0.81122642  0.58448722  0.22487337  1
  I  I9  1  0.22668465  0.81109625  0.89156514  1
  I  I10  1  0.77331534  0.18890547  0.89156130  1
  I  I11  1  0.58454871  0.77329818  0.55821576  1
