# generated using pymatgen
data_LiBr
_symmetry_space_group_name_H-M   'P 1'
_cell_length_a   7.78579081
_cell_length_b   3.89403271
_cell_length_c   5.51438214
_cell_angle_alpha   90.00001333
_cell_angle_beta   89.99999917
_cell_angle_gamma   90.00022234
_symmetry_Int_Tables_number   1
_chemical_formula_structural   LiBr
_chemical_formula_sum   'Li4 Br4'
_cell_volume   167.18572223
_cell_formula_units_Z   4
loop_
 _symmetry_equiv_pos_site_id
 _symmetry_equiv_pos_as_xyz
  1  'x, y, z'
loop_
 _atom_site_type_symbol
 _atom_site_label
 _atom_site_symmetry_multiplicity
 _atom_site_fract_x
 _atom_site_fract_y
 _atom_site_fract_z
 _atom_site_occupancy
  Li  Li0  1  0.87505603  0.25178818  0.99931572  1
  Li  Li1  1  0.12494421  0.75178803  0.50068731  1
  Li  Li2  1  0.62494414  0.74821236  0.49931589  1
  Li  Li3  1  0.37505602  0.24821174  0.00068705  1
  Br  Br4  1  0.62485295  0.74893942  -0.00001595  1
  Br  Br5  1  0.37514575  0.24893969  0.50001307  1
  Br  Br6  1  0.87514688  0.25106048  0.49998368  1
  Br  Br7  1  0.12485403  0.75106009  0.00001323  1
