# generated using pymatgen
data_LiBr
_symmetry_space_group_name_H-M   'P 1'
_cell_length_a   14.58639366
_cell_length_b   14.58640538
_cell_length_c   14.18061142
_cell_angle_alpha   90.00584531
_cell_angle_beta   89.99419938
_cell_angle_gamma   120.02208752
_symmetry_Int_Tables_number   1
_chemical_formula_structural   LiBr
_chemical_formula_sum   'Li36 Br36'
_cell_volume   2612.31227603
_cell_formula_units_Z   36
loop_
 _symmetry_equiv_pos_site_id
 _symmetry_equiv_pos_as_xyz
  1  'x, y, z'
loop_
 _atom_site_type_symbol
 _atom_site_label
 _atom_site_symmetry_multiplicity
 _atom_site_fract_x
 _atom_site_fract_y
 _atom_site_fract_z
 _atom_site_occupancy
  Li  Li0  1  0.47551906  0.64951780  0.73861145  1
  Li  Li1  1  0.15938885  0.14222320  0.92805317  1
  Li  Li2  1  0.84065624  0.98279578  0.57196344  1
  Li  Li3  1  0.84061112  0.85777650  0.07194667  1
  Li  Li4  1  0.49272152  0.80888971  0.59471987  1
  Li  Li5  1  0.50732274  0.31612886  0.90529677  1
  Li  Li6  1  0.68387090  0.49267732  0.40529632  1
  Li  Li7  1  0.98279574  0.84065647  0.92803646  1
  Li  Li8  1  0.31612949  0.50732327  0.59470336  1
  Li  Li9  1  0.35053735  0.82601027  0.73863017  1
  Li  Li10  1  0.50727744  0.19110978  0.40527953  1
  Li  Li11  1  0.98285074  0.14218549  0.42805518  1
  Li  Li12  1  0.01714918  0.85781489  0.57194496  1
  Li  Li13  1  0.47555673  0.82605534  0.23861360  1
  Li  Li14  1  0.49267689  0.68387104  0.09470327  1
  Li  Li15  1  0.01720448  0.15934331  0.07196371  1
  Li  Li16  1  0.64946228  0.17398933  0.26137013  1
  Li  Li17  1  0.15934357  0.01720429  0.42803650  1
  Li  Li18  1  0.19114782  0.68381560  0.59472201  1
  Li  Li19  1  0.80888983  0.49272147  0.90528054  1
  Li  Li20  1  0.17394523  0.52444368  0.73861364  1
  Li  Li21  1  0.80885224  0.31618443  0.40527778  1
  Li  Li22  1  0.19110981  0.50727796  0.09471987  1
  Li  Li23  1  0.82605560  0.47555680  0.26138678  1
  Li  Li24  1  0.52448083  0.35048230  0.26138872  1
  Li  Li25  1  0.52444366  0.17394511  0.76138610  1
  Li  Li26  1  0.85781429  0.01714899  0.92805554  1
  Li  Li27  1  0.14222351  0.15938888  0.57194677  1
  Li  Li28  1  0.14218575  0.98285098  0.07194429  1
  Li  Li29  1  0.85777642  0.84061127  0.42805332  1
  Li  Li30  1  0.17398973  0.64946241  0.23863017  1
  Li  Li31  1  0.68381574  0.19114780  0.90527774  1
  Li  Li32  1  0.31618404  0.80885160  0.09472186  1
  Li  Li33  1  0.82601061  0.35053748  0.76136991  1
  Li  Li34  1  0.35048266  0.52448187  0.23861170  1
  Li  Li35  1  0.64951746  0.47551847  0.76138871  1
  Br  Br36  1  0.49901043  0.64614819  0.56405812  1
  Br  Br37  1  0.18627593  0.16571063  0.10259948  1
  Br  Br38  1  0.81374432  0.97938983  0.39742748  1
  Br  Br39  1  0.81372446  0.83428943  0.89740035  1
  Br  Br40  1  0.51960883  0.83237757  0.76926600  1
  Br  Br41  1  0.48041095  0.31272322  0.73076082  1
  Br  Br42  1  0.68727656  0.51958805  0.23076045  1
  Br  Br43  1  0.97939019  0.81374509  0.10257245  1
  Br  Br44  1  0.31272375  0.48041145  0.76923942  1
  Br  Br45  1  0.35394305  0.85292206  0.56409407  1
  Br  Br46  1  0.48039126  0.16762278  0.23073339  1
  Br  Br47  1  0.97948146  0.16567679  0.60260874  1
  Br  Br48  1  0.02051841  0.83432335  0.39739134  1
  Br  Br49  1  0.49904416  0.85294214  0.06406732  1
  Br  Br50  1  0.51958953  0.68727729  0.26923928  1
  Br  Br51  1  0.02061000  0.18625490  0.89742763  1
  Br  Br52  1  0.64605657  0.14707863  0.43590597  1
  Br  Br53  1  0.18625587  0.02061044  0.60257242  1
  Br  Br54  1  0.16765644  0.68718523  0.76927537  1
  Br  Br55  1  0.83237723  0.51960840  0.73073415  1
  Br  Br56  1  0.14705789  0.50095573  0.56406753  1
  Br  Br57  1  0.83234330  0.31281472  0.23072445  1
  Br  Br58  1  0.16762255  0.48039139  0.26926619  1
  Br  Br59  1  0.85294204  0.49904406  0.43593292  1
  Br  Br60  1  0.50099002  0.35385196  0.43594223  1
  Br  Br61  1  0.50095618  0.14705804  0.93593265  1
  Br  Br62  1  0.83432334  0.02051847  0.10260908  1
  Br  Br63  1  0.16571047  0.18627527  0.39740025  1
  Br  Br64  1  0.16567671  0.97948138  0.89739077  1
  Br  Br65  1  0.83428934  0.81372475  0.60259971  1
  Br  Br66  1  0.14707714  0.64605618  0.06409424  1
  Br  Br67  1  0.68718530  0.16765673  0.73072409  1
  Br  Br68  1  0.31281469  0.83234332  0.26927521  1
  Br  Br69  1  0.85292214  0.35394301  0.93590581  1
  Br  Br70  1  0.35385200  0.50099005  0.06405836  1
  Br  Br71  1  0.64614796  0.49900973  0.93594229  1
