# generated using pymatgen
data_LiI
_symmetry_space_group_name_H-M   'P 1'
_cell_length_a   12.24846597
_cell_length_b   12.25044120
_cell_length_c   8.45370281
_cell_angle_alpha   90.00020831
_cell_angle_beta   89.99900240
_cell_angle_gamma   89.99978637
_symmetry_Int_Tables_number   1
_chemical_formula_structural   LiI
_chemical_formula_sum   'Li16 I16'
_cell_volume   1268.47060135
_cell_formula_units_Z   16
loop_
 _symmetry_equiv_pos_site_id
 _symmetry_equiv_pos_as_xyz
  1  'x, y, z'
loop_
 _atom_site_type_symbol
 _atom_site_label
 _atom_site_symmetry_multiplicity
 _atom_site_fract_x
 _atom_site_fract_y
 _atom_site_fract_z
 _atom_site_occupancy
  Li  Li0  1  0.42079433  0.34891294  0.65467956  1
  Li  Li1  1  0.15108867  0.92077413  0.84534221  1
  Li  Li2  1  0.42080345  0.84892282  0.59532255  1
  Li  Li3  1  0.57920038  0.65107278  0.65469171  1
  Li  Li4  1  0.84891881  0.07921792  0.84531729  1
  Li  Li5  1  0.65108446  0.92077625  0.90467583  1
  Li  Li6  1  0.34891501  0.07922834  0.90470116  1
  Li  Li7  1  0.15108309  0.42077852  0.40467338  1
  Li  Li8  1  0.84891431  0.57922422  0.40468101  1
  Li  Li9  1  0.07920606  0.15107099  0.15468558  1
  Li  Li10  1  0.34890410  0.57922509  0.34531698  1
  Li  Li11  1  0.92079383  0.84892446  0.15468839  1
  Li  Li12  1  0.65108320  0.42077508  0.34531817  1
  Li  Li13  1  0.92079230  0.34892414  0.09531931  1
  Li  Li14  1  0.07920417  0.65107545  0.09531520  1
  Li  Li15  1  0.57920961  0.15108279  0.59531858  1
  I  I16  1  0.72367676  0.98774679  0.61788185  1
  I  I17  1  0.51225519  0.22368852  0.88210509  1
  I  I18  1  0.72367260  0.48775133  0.63211262  1
  I  I19  1  0.27632388  0.01225283  0.61786948  1
  I  I20  1  0.48774474  0.77631406  0.88210967  1
  I  I21  1  0.01225698  0.22368602  0.86787890  1
  I  I22  1  0.98774376  0.77631829  0.86788034  1
  I  I23  1  0.51225716  0.72369068  0.36788525  1
  I  I24  1  0.48774547  0.27630793  0.36788640  1
  I  I25  1  0.77632634  0.51224844  0.11787331  1
  I  I26  1  0.98774126  0.27631555  0.38211983  1
  I  I27  1  0.22367655  0.48775195  0.11788899  1
  I  I28  1  0.01225608  0.72368287  0.38211149  1
  I  I29  1  0.22367566  0.98775884  0.13211159  1
  I  I30  1  0.77632817  0.01224991  0.13212096  1
  I  I31  1  0.27632360  0.51225008  0.63211734  1
