# generated using pymatgen
data_LiBr
_symmetry_space_group_name_H-M   'P 1'
_cell_length_a   10.26301548
_cell_length_b   10.26297102
_cell_length_c   12.56713550
_cell_angle_alpha   90.00441112
_cell_angle_beta   89.99566950
_cell_angle_gamma   120.01041565
_symmetry_Int_Tables_number   1
_chemical_formula_structural   LiBr
_chemical_formula_sum   'Li18 Br18'
_cell_volume   1146.22380449
_cell_formula_units_Z   18
loop_
 _symmetry_equiv_pos_site_id
 _symmetry_equiv_pos_as_xyz
  1  'x, y, z'
loop_
 _atom_site_type_symbol
 _atom_site_label
 _atom_site_symmetry_multiplicity
 _atom_site_fract_x
 _atom_site_fract_y
 _atom_site_fract_z
 _atom_site_occupancy
  Li  Li0  1  0.25012457  0.24988033  0.12137358  1
  Li  Li1  1  0.25014274  0.00023436  0.62136288  1
  Li  Li2  1  0.08347626  0.41646240  0.28824429  1
  Li  Li3  1  0.33297165  0.91654433  0.28826025  1
  Li  Li4  1  0.41666867  0.33364983  0.45483038  1
  Li  Li5  1  0.75009858  0.00025103  0.12138416  1
  Li  Li6  1  0.33298835  0.41643907  0.78823619  1
  Li  Li7  1  0.08345713  0.66702663  0.78826043  1
  Li  Li8  1  -0.00023372  0.74985737  0.12136348  1
  Li  Li9  1  -0.00025172  0.24990102  0.62138376  1
  Li  Li10  1  0.58353816  0.91652448  0.78824345  1
  Li  Li11  1  0.58355829  0.66701290  0.28823686  1
  Li  Li12  1  0.66637437  0.08302312  0.45481268  1
  Li  Li13  1  0.66634940  0.58333209  0.95482974  1
  Li  Li14  1  0.75011954  0.74987473  0.62137377  1
  Li  Li15  1  0.41667990  0.08303926  0.95481933  1
  Li  Li16  1  -0.08303887  0.58332093  0.45482055  1
  Li  Li17  1  -0.08302191  0.33362635  0.95481205  1
  Br  Br18  1  0.08285988  0.41647247  0.78793711  1
  Br  Br19  1  0.08278886  0.66637057  0.28791631  1
  Br  Br20  1  0.91677109  0.58370620  0.95464927  1
  Br  Br21  1  0.66692576  0.08315980  0.95466326  1
  Br  Br22  1  0.25029397  -0.00017878  0.12134675  1
  Br  Br23  1  0.58358746  0.66639995  0.78795269  1
  Br  Br24  1  0.66696261  0.58378926  0.45462622  1
  Br  Br25  1  0.91683969  0.33307394  0.45466407  1
  Br  Br26  1  0.33363167  0.91721184  0.78791583  1
  Br  Br27  1  0.33359937  0.41641098  0.28795364  1
  Br  Br28  1  0.41629362  0.08322924  0.45465237  1
  Br  Br29  1  0.41621147  0.33303821  0.95462575  1
  Br  Br30  1  0.00021154  0.25048886  0.12130876  1
  Br  Br31  1  0.00017775  0.74970604  0.62134743  1
  Br  Br32  1  0.58352676  0.91714106  0.28793470  1
  Br  Br33  1  0.25022325  0.25041617  0.62132857  1
  Br  Br34  1  0.74958239  0.74977590  0.12133106  1
  Br  Br35  1  0.74951148  -0.00021193  0.62130919  1
