# generated using pymatgen
data_KI
_symmetry_space_group_name_H-M   'P 1'
_cell_length_a   8.59410525
_cell_length_b   4.99183079
_cell_length_c   8.68992258
_cell_angle_alpha   89.99836184
_cell_angle_beta   90.00255952
_cell_angle_gamma   90.00124002
_symmetry_Int_Tables_number   1
_chemical_formula_structural   KI
_chemical_formula_sum   'K4 I4'
_cell_volume   372.80045237
_cell_formula_units_Z   4
loop_
 _symmetry_equiv_pos_site_id
 _symmetry_equiv_pos_as_xyz
  1  'x, y, z'
loop_
 _atom_site_type_symbol
 _atom_site_label
 _atom_site_symmetry_multiplicity
 _atom_site_fract_x
 _atom_site_fract_y
 _atom_site_fract_z
 _atom_site_occupancy
  K  K0  1  0.75033341  0.74622802  0.78357879  1
  K  K1  1  0.25033259  0.25377381  0.78357921  1
  K  K2  1  0.24966142  0.25377162  0.28357171  1
  K  K3  1  0.74966266  0.74622812  0.28357330  1
  I  I4  1  0.91690633  0.24766417  0.53340743  1
  I  I5  1  0.41690714  0.75233069  0.53340447  1
  I  I6  1  0.08309839  0.75234139  0.03341059  1
  I  I7  1  0.58309807  0.24766217  0.03340862  1
