# generated using pymatgen
data_KBr
_symmetry_space_group_name_H-M   'P 1'
_cell_length_a   8.96912763
_cell_length_b   8.99133587
_cell_length_c   4.21254086
_cell_angle_alpha   89.99996161
_cell_angle_beta   90.00042761
_cell_angle_gamma   90.00011234
_symmetry_Int_Tables_number   1
_chemical_formula_structural   KBr
_chemical_formula_sum   'K4 Br4'
_cell_volume   339.71799474
_cell_formula_units_Z   4
loop_
 _symmetry_equiv_pos_site_id
 _symmetry_equiv_pos_as_xyz
  1  'x, y, z'
loop_
 _atom_site_type_symbol
 _atom_site_label
 _atom_site_symmetry_multiplicity
 _atom_site_fract_x
 _atom_site_fract_y
 _atom_site_fract_z
 _atom_site_occupancy
  K  K0  1  0.35392451  0.84880317  0.44148420  1
  K  K1  1  0.14607773  0.34880581  0.44147310  1
  K  K2  1  0.64607567  0.15119674  0.44146589  1
  K  K3  1  0.85392222  0.65119418  0.44147795  1
  Br  Br4  1  0.65610548  0.84754451  0.94226797  1
  Br  Br5  1  0.84389216  0.34754693  0.94226968  1
  Br  Br6  1  0.34389448  0.15245548  0.94228115  1
  Br  Br7  1  0.15610774  0.65245318  0.94227870  1
