# generated using pymatgen
data_LiBr
_symmetry_space_group_name_H-M   'P 1'
_cell_length_a   6.81694088
_cell_length_b   7.28427661
_cell_length_c   4.33021387
_cell_angle_alpha   89.99972150
_cell_angle_beta   90.00092739
_cell_angle_gamma   90.00309848
_symmetry_Int_Tables_number   1
_chemical_formula_structural   LiBr
_chemical_formula_sum   'Li4 Br4'
_cell_volume   215.02319083
_cell_formula_units_Z   4
loop_
 _symmetry_equiv_pos_site_id
 _symmetry_equiv_pos_as_xyz
  1  'x, y, z'
loop_
 _atom_site_type_symbol
 _atom_site_label
 _atom_site_symmetry_multiplicity
 _atom_site_fract_x
 _atom_site_fract_y
 _atom_site_fract_z
 _atom_site_occupancy
  Li  Li0  1  0.34508345  0.09695644  0.82390511  1
  Li  Li1  1  0.84508910  0.40305874  0.82390285  1
  Li  Li2  1  0.65491614  0.90304218  0.32388935  1
  Li  Li3  1  0.15491522  0.59694146  0.32389140  1
  Br  Br4  1  0.22443148  0.42474930  0.82405361  1
  Br  Br5  1  0.72442735  0.07526028  0.82405620  1
  Br  Br6  1  0.77556520  0.57525013  0.32405523  1
  Br  Br7  1  0.27557207  0.92474146  0.32405300  1
