# generated using pymatgen
data_NaI
_symmetry_space_group_name_H-M   'P 1'
_cell_length_a   7.90271519
_cell_length_b   7.74144509
_cell_length_c   9.09470332
_cell_angle_alpha   90.00015531
_cell_angle_beta   89.99987328
_cell_angle_gamma   89.99958408
_symmetry_Int_Tables_number   1
_chemical_formula_structural   NaI
_chemical_formula_sum   'Na8 I8'
_cell_volume   556.39972246
_cell_formula_units_Z   8
loop_
 _symmetry_equiv_pos_site_id
 _symmetry_equiv_pos_as_xyz
  1  'x, y, z'
loop_
 _atom_site_type_symbol
 _atom_site_label
 _atom_site_symmetry_multiplicity
 _atom_site_fract_x
 _atom_site_fract_y
 _atom_site_fract_z
 _atom_site_occupancy
  Na  Na0  1  0.75036803  0.00003167  0.62496227  1
  Na  Na1  1  0.75036772  0.49996836  0.12496178  1
  Na  Na2  1  0.25036775  0.49996798  0.37503855  1
  Na  Na3  1  0.74963222  -0.00003191  0.12496233  1
  Na  Na4  1  0.24963225  0.50003174  0.87503820  1
  Na  Na5  1  0.74963225  0.50003199  0.62496146  1
  Na  Na6  1  0.25036777  0.00003195  0.87503764  1
  Na  Na7  1  0.24963202  -0.00003171  0.37503773  1
  I  I8  1  0.08323932  0.25048125  0.62444563  1
  I  I9  1  0.08323929  0.24951865  0.12444651  1
  I  I10  1  0.58323932  0.24951782  0.37555595  1
  I  I11  1  0.41676105  0.74951869  0.12444474  1
  I  I12  1  0.91676069  0.75048131  0.87555351  1
  I  I13  1  0.41676067  0.75048219  0.62444408  1
  I  I14  1  0.58323893  0.25048129  0.87555525  1
  I  I15  1  0.91676070  0.74951875  0.37555437  1
