# generated using pymatgen
data_LiI
_symmetry_space_group_name_H-M   'P 1'
_cell_length_a   12.59046739
_cell_length_b   12.59025473
_cell_length_c   8.67009651
_cell_angle_alpha   90.01986782
_cell_angle_beta   89.98206382
_cell_angle_gamma   120.01409408
_symmetry_Int_Tables_number   1
_chemical_formula_structural   LiI
_chemical_formula_sum   'Li18 I18'
_cell_volume   1190.06094980
_cell_formula_units_Z   18
loop_
 _symmetry_equiv_pos_site_id
 _symmetry_equiv_pos_as_xyz
  1  'x, y, z'
loop_
 _atom_site_type_symbol
 _atom_site_label
 _atom_site_symmetry_multiplicity
 _atom_site_fract_x
 _atom_site_fract_y
 _atom_site_fract_z
 _atom_site_occupancy
  Li  Li0  1  0.59588032  0.79816267  0.69468674  1
  Li  Li1  1  0.59570439  0.79774180  0.19469376  1
  Li  Li2  1  0.53531126  0.07091046  0.86142525  1
  Li  Li3  1  0.53545644  0.46457771  0.86152883  1
  Li  Li4  1  0.86885738  0.13133073  0.02850336  1
  Li  Li5  1  0.20215824  0.79787683  0.69465008  1
  Li  Li6  1  0.53564627  0.07106906  0.36134303  1
  Li  Li7  1  0.53542291  0.46456082  0.36152946  1
  Li  Li8  1  0.20226565  0.40427784  0.69470812  1
  Li  Li9  1  0.20213156  0.79786634  0.19463167  1
  Li  Li10  1  -0.07089549  0.46471848  0.36145650  1
  Li  Li11  1  -0.07104809  0.46436844  0.86134648  1
  Li  Li12  1  0.86881262  0.73754445  0.02841876  1
  Li  Li13  1  0.86866262  0.13113482  0.52848647  1
  Li  Li14  1  0.20183074  0.40413054  0.19470377  1
  Li  Li15  1  0.86870283  0.73741806  0.52840565  1
  Li  Li16  1  0.26256876  0.13130051  0.02845735  1
  Li  Li17  1  0.26243290  0.13117400  0.52845780  1
  I  I18  1  0.45285480  0.54674378  0.12170580  1
  I  I19  1  0.45305384  0.90625098  0.62136432  1
  I  I20  1  0.78661800  0.21367692  0.28854701  1
  I  I21  1  0.42712448  0.21351339  0.28834409  1
  I  I22  1  0.11989041  0.23939888  0.45477264  1
  I  I23  1  0.45317530  0.90613282  0.12136942  1
  I  I24  1  0.42708793  0.21364026  0.78835778  1
  I  I25  1  0.78648673  0.57285960  0.78828456  1
  I  I26  1  0.09375049  0.54696080  0.12138897  1
  I  I27  1  0.09389572  0.54682967  0.62140281  1
  I  I28  1  0.78633833  0.21338685  0.78854268  1
  I  I29  1  0.78634619  0.57289580  0.28830712  1
  I  I30  1  0.76053540  0.88040074  0.45473161  1
  I  I31  1  0.76058495  0.88009428  0.95477080  1
  I  I32  1  0.45325627  0.54713204  0.62170814  1
  I  I33  1  0.11998738  0.88047465  0.95482151  1
  I  I34  1  0.11952592  0.87999323  0.45482682  1
  I  I35  1  0.11958658  0.23945171  0.95473379  1
