# generated using pymatgen
data_LiBr
_symmetry_space_group_name_H-M   'P 1'
_cell_length_a   6.97000803
_cell_length_b   7.26781621
_cell_length_c   4.31002080
_cell_angle_alpha   89.99878538
_cell_angle_beta   90.00073441
_cell_angle_gamma   89.99919507
_symmetry_Int_Tables_number   1
_chemical_formula_structural   LiBr
_chemical_formula_sum   'Li4 Br4'
_cell_volume   218.33159199
_cell_formula_units_Z   4
loop_
 _symmetry_equiv_pos_site_id
 _symmetry_equiv_pos_as_xyz
  1  'x, y, z'
loop_
 _atom_site_type_symbol
 _atom_site_label
 _atom_site_symmetry_multiplicity
 _atom_site_fract_x
 _atom_site_fract_y
 _atom_site_fract_z
 _atom_site_occupancy
  Li  Li0  1  0.09615939  0.59514809  -0.00040373  1
  Li  Li1  1  0.90383975  0.09515570  0.50041928  1
  Li  Li2  1  0.40384316  0.40485363  0.49958720  1
  Li  Li3  1  0.59615731  0.90484906  0.00041376  1
  Br  Br4  1  -0.03246252  -0.08075543  -0.00026259  1
  Br  Br5  1  0.03245988  0.41925066  0.50024337  1
  Br  Br6  1  0.53246217  0.08074976  0.49975885  1
  Br  Br7  1  0.46754085  0.58074853  0.00024385  1
