# generated using pymatgen
data_LiBr
_symmetry_space_group_name_H-M   'P 1'
_cell_length_a   7.83706755
_cell_length_b   7.83706873
_cell_length_c   12.72049459
_cell_angle_alpha   89.99996998
_cell_angle_beta   90.00003269
_cell_angle_gamma   90.00000045
_symmetry_Int_Tables_number   1
_chemical_formula_structural   LiBr
_chemical_formula_sum   'Li16 Br16'
_cell_volume   781.28816114
_cell_formula_units_Z   16
loop_
 _symmetry_equiv_pos_site_id
 _symmetry_equiv_pos_as_xyz
  1  'x, y, z'
loop_
 _atom_site_type_symbol
 _atom_site_label
 _atom_site_symmetry_multiplicity
 _atom_site_fract_x
 _atom_site_fract_y
 _atom_site_fract_z
 _atom_site_occupancy
  Li  Li0  1  0.69956101  0.60109297  0.64459800  1
  Li  Li1  1  0.89890811  0.19956373  0.85540239  1
  Li  Li2  1  0.69956286  0.10109205  0.60540232  1
  Li  Li3  1  0.30043766  0.39890777  0.64459795  1
  Li  Li4  1  0.10109236  0.80043776  0.85540180  1
  Li  Li5  1  0.39890770  0.19956237  0.89459764  1
  Li  Li6  1  0.60109296  0.80043909  0.89459810  1
  Li  Li7  1  0.89890748  0.69956132  0.39459840  1
  Li  Li8  1  0.10109142  0.30043650  0.39459783  1
  Li  Li9  1  0.80043911  0.89890725  0.14459826  1
  Li  Li10  1  0.60109191  0.30043663  0.35540253  1
  Li  Li11  1  0.19956340  0.10109192  0.14459760  1
  Li  Li12  1  0.39890765  0.69956158  0.35540198  1
  Li  Li13  1  0.19956257  0.60109230  0.10540197  1
  Li  Li14  1  0.80043665  0.39890816  0.10540243  1
  Li  Li15  1  0.30043725  0.89890773  0.60540210  1
  Br  Br16  1  0.36276760  0.67809654  0.75236682  1
  Br  Br17  1  0.82190401  0.86276675  0.74763281  1
  Br  Br18  1  0.36276645  0.17809594  0.49763335  1
  Br  Br19  1  0.63723285  0.32190375  0.75236661  1
  Br  Br20  1  0.17809572  0.13723335  0.74763319  1
  Br  Br21  1  0.32190386  0.86276708  0.00236672  1
  Br  Br22  1  0.67809653  0.13723288  0.00236660  1
  Br  Br23  1  0.82190344  0.36276713  0.50236668  1
  Br  Br24  1  0.17809637  0.63723302  0.50236695  1
  Br  Br25  1  0.13723282  0.82190378  0.25236672  1
  Br  Br26  1  0.67809616  0.63723323  0.24763299  1
  Br  Br27  1  0.86276670  0.17809630  0.25236675  1
  Br  Br28  1  0.32190363  0.36276688  0.24763350  1
  Br  Br29  1  0.86276719  0.67809606  -0.00236700  1
  Br  Br30  1  0.13723372  0.32190405  -0.00236682  1
  Br  Br31  1  0.63723289  0.82190412  0.49763285  1
