# generated using pymatgen
data_LiBr
_symmetry_space_group_name_H-M   'P 1'
_cell_length_a   7.04582903
_cell_length_b   6.96751469
_cell_length_c   4.39836179
_cell_angle_alpha   90.00178606
_cell_angle_beta   90.00153439
_cell_angle_gamma   89.99878390
_symmetry_Int_Tables_number   1
_chemical_formula_structural   LiBr
_chemical_formula_sum   'Li4 Br4'
_cell_volume   215.92401298
_cell_formula_units_Z   4
loop_
 _symmetry_equiv_pos_site_id
 _symmetry_equiv_pos_as_xyz
  1  'x, y, z'
loop_
 _atom_site_type_symbol
 _atom_site_label
 _atom_site_symmetry_multiplicity
 _atom_site_fract_x
 _atom_site_fract_y
 _atom_site_fract_z
 _atom_site_occupancy
  Li  Li0  1  0.14957737  0.14840182  0.25238474  1
  Li  Li1  1  0.85043980  0.64840130  0.24762337  1
  Li  Li2  1  0.35042221  0.85159592  0.75238019  1
  Li  Li3  1  0.64955995  0.35159814  0.74761283  1
  Br  Br4  1  0.18267533  0.77897305  0.25201725  1
  Br  Br5  1  0.81732978  0.27898266  0.24800166  1
  Br  Br6  1  0.31732478  0.22102690  0.75198102  1
  Br  Br7  1  0.68267077  0.72102022  0.74799893  1
