# generated using pymatgen
data_LiI
_symmetry_space_group_name_H-M   'P 1'
_cell_length_a   7.37864124
_cell_length_b   4.28387837
_cell_length_c   7.22208467
_cell_angle_alpha   90.00000859
_cell_angle_beta   71.19198830
_cell_angle_gamma   89.99999249
_symmetry_Int_Tables_number   1
_chemical_formula_structural   LiI
_chemical_formula_sum   'Li4 I4'
_cell_volume   216.09490292
_cell_formula_units_Z   4
loop_
 _symmetry_equiv_pos_site_id
 _symmetry_equiv_pos_as_xyz
  1  'x, y, z'
loop_
 _atom_site_type_symbol
 _atom_site_label
 _atom_site_symmetry_multiplicity
 _atom_site_fract_x
 _atom_site_fract_y
 _atom_site_fract_z
 _atom_site_occupancy
  Li  Li0  1  0.83363961  0.75241273  0.49094088  1
  Li  Li1  1  0.33363710  0.25240763  0.49094277  1
  Li  Li2  1  0.83363758  0.24759007  0.99094182  1
  Li  Li3  1  0.33363897  0.74758948  0.99094037  1
  I  I4  1  0.08099661  0.75007276  0.74312432  1
  I  I5  1  0.58099665  0.25007269  0.74312425  1
  I  I6  1  0.08099679  0.24992814  0.24312428  1
  I  I7  1  0.58099669  0.74992652  0.24312452  1
