# generated using pymatgen
data_NaCl
_symmetry_space_group_name_H-M   'P 1'
_cell_length_a   4.02990173
_cell_length_b   4.02991542
_cell_length_c   9.86688304
_cell_angle_alpha   90.00020201
_cell_angle_beta   89.99938135
_cell_angle_gamma   120.00692836
_symmetry_Int_Tables_number   1
_chemical_formula_structural   NaCl
_chemical_formula_sum   'Na3 Cl3'
_cell_volume   138.76203956
_cell_formula_units_Z   3
loop_
 _symmetry_equiv_pos_site_id
 _symmetry_equiv_pos_as_xyz
  1  'x, y, z'
loop_
 _atom_site_type_symbol
 _atom_site_label
 _atom_site_symmetry_multiplicity
 _atom_site_fract_x
 _atom_site_fract_y
 _atom_site_fract_z
 _atom_site_occupancy
  Na  Na0  1  0.33406340  0.00085251  0.04298566  1
  Na  Na1  1  -0.00084443  0.33317796  0.70965313  1
  Na  Na2  1  0.66679139  0.66595380  0.37631489  1
  Cl  Cl3  1  0.66736434  0.66713251  0.87687847  1
  Cl  Cl4  1  0.33286926  0.00024828  0.54353944  1
  Cl  Cl5  1  -0.00024397  0.33263494  0.21020818  1
