# generated using pymatgen
data_LiBr
_symmetry_space_group_name_H-M   'P 1'
_cell_length_a   10.29702762
_cell_length_b   11.53964881
_cell_length_c   8.49132381
_cell_angle_alpha   89.99995803
_cell_angle_beta   90.00003481
_cell_angle_gamma   89.99998074
_symmetry_Int_Tables_number   1
_chemical_formula_structural   LiBr
_chemical_formula_sum   'Li16 Br16'
_cell_volume   1008.97376139
_cell_formula_units_Z   16
loop_
 _symmetry_equiv_pos_site_id
 _symmetry_equiv_pos_as_xyz
  1  'x, y, z'
loop_
 _atom_site_type_symbol
 _atom_site_label
 _atom_site_symmetry_multiplicity
 _atom_site_fract_x
 _atom_site_fract_y
 _atom_site_fract_z
 _atom_site_occupancy
  Li  Li0  1  0.49982112  0.35778041  0.34541189  1
  Li  Li1  1  0.50017946  0.64221914  0.34541119  1
  Li  Li2  1  0.75017970  0.60778064  0.59541117  1
  Li  Li3  1  0.00018026  0.64221936  0.84541144  1
  Li  Li4  1  0.25017956  0.60778139  0.09541151  1
  Li  Li5  1  0.74982042  0.89221933  0.59541159  1
  Li  Li6  1  -0.00017840  0.35778114  0.84541189  1
  Li  Li7  1  0.25017992  0.10778029  0.59541107  1
  Li  Li8  1  0.74982004  0.39221951  0.09541100  1
  Li  Li9  1  -0.00017922  0.85778023  0.34541138  1
  Li  Li10  1  0.00017986  0.14221908  0.34541155  1
  Li  Li11  1  0.75017963  0.10778170  0.09541140  1
  Li  Li12  1  0.24982048  0.89221903  0.09541149  1
  Li  Li13  1  0.24982083  0.39221876  0.59541191  1
  Li  Li14  1  0.49982149  0.85778134  0.84541223  1
  Li  Li15  1  0.50018040  0.14221948  0.84541149  1
  Br  Br16  1  0.30841078  -0.00002561  0.84535304  1
  Br  Br17  1  0.69158893  0.00002608  0.84535294  1
  Br  Br18  1  -0.05841165  0.24997427  0.09535279  1
  Br  Br19  1  0.19158911  0.00002544  0.34535270  1
  Br  Br20  1  0.44158831  0.24997406  0.59535279  1
  Br  Br21  1  0.55841012  0.25002602  0.09535291  1
  Br  Br22  1  0.80841064  -0.00002585  0.34535280  1
  Br  Br23  1  0.44158816  0.74997429  0.09535263  1
  Br  Br24  1  0.55841066  0.75002539  0.59535335  1
  Br  Br25  1  0.80841086  0.49997444  0.84535291  1
  Br  Br26  1  0.19158917  0.50002598  0.84535287  1
  Br  Br27  1  -0.05841177  0.74997415  0.59535288  1
  Br  Br28  1  0.05841079  0.25002526  0.59535338  1
  Br  Br29  1  0.05841044  0.75002571  0.09535292  1
  Br  Br30  1  0.30841089  0.49997418  0.34535283  1
  Br  Br31  1  0.69158901  0.50002536  0.34535312  1
