# generated using pymatgen
data_LiBr
_symmetry_space_group_name_H-M   'P 1'
_cell_length_a   11.54539896
_cell_length_b   11.54540269
_cell_length_c   7.52756162
_cell_angle_alpha   90.00165702
_cell_angle_beta   89.99830170
_cell_angle_gamma   120.00705377
_symmetry_Int_Tables_number   1
_chemical_formula_structural   LiBr
_chemical_formula_sum   'Li18 Br18'
_cell_volume   868.90462159
_cell_formula_units_Z   18
loop_
 _symmetry_equiv_pos_site_id
 _symmetry_equiv_pos_as_xyz
  1  'x, y, z'
loop_
 _atom_site_type_symbol
 _atom_site_label
 _atom_site_symmetry_multiplicity
 _atom_site_fract_x
 _atom_site_fract_y
 _atom_site_fract_z
 _atom_site_occupancy
  Li  Li0  1  0.31664308  0.21923088  0.01213442  1
  Li  Li1  1  0.31663394  0.09741001  0.51213739  1
  Li  Li2  1  0.11410976  0.35003795  0.17875366  1
  Li  Li3  1  0.23593875  0.88589432  0.17876233  1
  Li  Li4  1  0.44743698  0.43073272  0.34546269  1
  Li  Li5  1  0.78076456  0.09739834  0.01214212  1
  Li  Li6  1  0.23593057  0.35004480  0.67875668  1
  Li  Li7  1  0.11410641  0.76406242  0.67876146  1
  Li  Li8  1  0.90259045  0.68336598  0.01213698  1
  Li  Li9  1  0.90260169  0.21923543  0.51214263  1
  Li  Li10  1  0.64996002  0.88588942  0.67875587  1
  Li  Li11  1  0.64995464  0.76406887  0.17875740  1
  Li  Li12  1  0.56926196  0.01670827  0.34545719  1
  Li  Li13  1  0.56926838  0.55256247  0.84546330  1
  Li  Li14  1  0.78076912  0.68335580  0.51213315  1
  Li  Li15  1  0.44744445  0.01670093  0.84545259  1
  Li  Li16  1  0.98329906  0.55255483  0.34545287  1
  Li  Li17  1  0.98328875  0.43073802  0.84545889  1
  Br  Br18  1  0.53666462  0.86640880  0.98549356  1
  Br  Br19  1  0.53664409  0.67025241  0.48548563  1
  Br  Br20  1  0.46696067  0.13001971  0.15215241  1
  Br  Br21  1  0.66305314  0.53301924  0.15215204  1
  Br  Br22  1  0.80030050  0.00361007  0.31882505  1
  Br  Br23  1  0.13361167  0.67026186  0.98549327  1
  Br  Br24  1  0.66306440  0.13004035  0.65214301  1
  Br  Br25  1  0.46698111  0.33694736  0.65215224  1
  Br  Br26  1  0.32974808  0.46335652  0.98548574  1
  Br  Br27  1  0.32973877  0.86638890  0.48549354  1
  Br  Br28  1  0.86998013  0.53303980  0.65215216  1
  Br  Br29  1  0.86995952  0.33693558  0.15214261  1
  Br  Br30  1  0.99639974  0.79669493  0.31881644  1
  Br  Br31  1  0.99639000  0.19970005  0.81882537  1
  Br  Br32  1  0.13359138  0.46333562  0.48549303  1
  Br  Br33  1  0.80027930  0.79667531  0.81882459  1
  Br  Br34  1  0.20332509  0.19972126  0.31882441  1
  Br  Br35  1  0.20330526  0.00360073  0.81881665  1
