# generated using pymatgen
data_LiBr
_symmetry_space_group_name_H-M   'P 1'
_cell_length_a   4.49894004
_cell_length_b   7.68401325
_cell_length_c   5.68571523
_cell_angle_alpha   90.00034619
_cell_angle_beta   90.00000433
_cell_angle_gamma   90.00006890
_symmetry_Int_Tables_number   1
_chemical_formula_structural   LiBr
_chemical_formula_sum   'Li4 Br4'
_cell_volume   196.55469126
_cell_formula_units_Z   4
loop_
 _symmetry_equiv_pos_site_id
 _symmetry_equiv_pos_as_xyz
  1  'x, y, z'
loop_
 _atom_site_type_symbol
 _atom_site_label
 _atom_site_symmetry_multiplicity
 _atom_site_fract_x
 _atom_site_fract_y
 _atom_site_fract_z
 _atom_site_occupancy
  Li  Li0  1  0.75053885  0.33245668  0.24961003  1
  Li  Li1  1  0.24945899  0.83245682  0.25038700  1
  Li  Li2  1  0.74945820  0.66754276  0.74960365  1
  Li  Li3  1  0.25053995  0.16754422  0.75039811  1
  Br  Br4  1  0.74902035  0.66801315  0.25006710  1
  Br  Br5  1  0.25098125  0.16801390  0.24993289  1
  Br  Br6  1  0.75098175  0.33198605  0.75006733  1
  Br  Br7  1  0.24902065  0.83198642  0.74993390  1
