# generated using pymatgen
data_LiBr
_symmetry_space_group_name_H-M   'P 1'
_cell_length_a   7.19158671
_cell_length_b   4.18162898
_cell_length_c   7.17972027
_cell_angle_alpha   89.99973539
_cell_angle_beta   71.06974009
_cell_angle_gamma   89.99997864
_symmetry_Int_Tables_number   1
_chemical_formula_structural   LiBr
_chemical_formula_sum   'Li4 Br4'
_cell_volume   204.23466918
_cell_formula_units_Z   4
loop_
 _symmetry_equiv_pos_site_id
 _symmetry_equiv_pos_as_xyz
  1  'x, y, z'
loop_
 _atom_site_type_symbol
 _atom_site_label
 _atom_site_symmetry_multiplicity
 _atom_site_fract_x
 _atom_site_fract_y
 _atom_site_fract_z
 _atom_site_occupancy
  Li  Li0  1  0.59795045  0.74886233  0.17583047  1
  Li  Li1  1  0.09795054  0.24886214  0.17582883  1
  Li  Li2  1  0.59795236  0.25113703  0.67582565  1
  Li  Li3  1  0.09795088  0.75113644  0.67582449  1
  Br  Br4  1  0.97295194  0.25139194  0.55092675  1
  Br  Br5  1  0.47295173  0.75139211  0.55092803  1
  Br  Br6  1  0.97295082  0.74860903  0.05092642  1
  Br  Br7  1  0.47295092  0.24860898  0.05092736  1
