# generated using pymatgen
data_LiBr
_symmetry_space_group_name_H-M   'P 1'
_cell_length_a   7.79342021
_cell_length_b   7.79342061
_cell_length_c   5.49767389
_cell_angle_alpha   89.99999626
_cell_angle_beta   89.99999469
_cell_angle_gamma   89.99999581
_symmetry_Int_Tables_number   1
_chemical_formula_structural   LiBr
_chemical_formula_sum   'Li8 Br8'
_cell_volume   333.91442700
_cell_formula_units_Z   8
loop_
 _symmetry_equiv_pos_site_id
 _symmetry_equiv_pos_as_xyz
  1  'x, y, z'
loop_
 _atom_site_type_symbol
 _atom_site_label
 _atom_site_symmetry_multiplicity
 _atom_site_fract_x
 _atom_site_fract_y
 _atom_site_fract_z
 _atom_site_occupancy
  Li  Li0  1  0.00026435  0.24899078  0.24897735  1
  Li  Li1  1  0.25100899  0.49973770  0.75102344  1
  Li  Li2  1  -0.00026034  0.75101011  0.24897284  1
  Li  Li3  1  0.75100952  0.00026165  0.75102400  1
  Li  Li4  1  0.24899036  -0.00025954  0.75102547  1
  Li  Li5  1  0.49973871  0.74898962  0.24897616  1
  Li  Li6  1  0.74898937  0.50025896  0.75102716  1
  Li  Li7  1  0.50025936  0.25101037  0.24897396  1
  Br  Br8  1  0.24999532  0.50065773  0.25033262  1
  Br  Br9  1  -0.00065757  0.25000468  0.74966753  1
  Br  Br10  1  0.75000448  0.49934212  0.25033300  1
  Br  Br11  1  0.49934233  0.24999575  0.74966675  1
  Br  Br12  1  0.50065767  0.75000470  0.74966729  1
  Br  Br13  1  0.25000460  0.00065760  0.25033285  1
  Br  Br14  1  0.00065770  0.74999560  0.74966691  1
  Br  Br15  1  0.74999514  -0.00065783  0.25033266  1
