# generated using pymatgen
data_NaBr
_symmetry_space_group_name_H-M   'P 1'
_cell_length_a   7.39725264
_cell_length_b   4.26912054
_cell_length_c   8.51947852
_cell_angle_alpha   90.00000361
_cell_angle_beta   125.34311729
_cell_angle_gamma   89.99999945
_symmetry_Int_Tables_number   1
_chemical_formula_structural   NaBr
_chemical_formula_sum   'Na4 Br4'
_cell_volume   219.45914019
_cell_formula_units_Z   4
loop_
 _symmetry_equiv_pos_site_id
 _symmetry_equiv_pos_as_xyz
  1  'x, y, z'
loop_
 _atom_site_type_symbol
 _atom_site_label
 _atom_site_symmetry_multiplicity
 _atom_site_fract_x
 _atom_site_fract_y
 _atom_site_fract_z
 _atom_site_occupancy
  Na  Na0  1  0.89150545  -0.00163960  0.27982256  1
  Na  Na1  1  0.39150546  0.49836040  0.27982257  1
  Na  Na2  1  0.89150592  0.00163963  0.77982155  1
  Na  Na3  1  0.39150593  0.50163965  0.77982156  1
  Br  Br4  1  0.39154488  0.00041910  0.52979943  1
  Br  Br5  1  0.89154489  0.50041909  0.52979943  1
  Br  Br6  1  0.39154474  -0.00041913  0.02979948  1
  Br  Br7  1  0.89154475  0.49958087  0.02979948  1
