# generated using pymatgen
data_NaBr
_symmetry_space_group_name_H-M   'P 1'
_cell_length_a   8.53777639
_cell_length_b   8.53962631
_cell_length_c   12.05545325
_cell_angle_alpha   90.00003888
_cell_angle_beta   89.99999887
_cell_angle_gamma   89.99999770
_symmetry_Int_Tables_number   1
_chemical_formula_structural   NaBr
_chemical_formula_sum   'Na16 Br16'
_cell_volume   878.95610279
_cell_formula_units_Z   16
loop_
 _symmetry_equiv_pos_site_id
 _symmetry_equiv_pos_as_xyz
  1  'x, y, z'
loop_
 _atom_site_type_symbol
 _atom_site_label
 _atom_site_symmetry_multiplicity
 _atom_site_fract_x
 _atom_site_fract_y
 _atom_site_fract_z
 _atom_site_occupancy
  Na  Na0  1  0.74987665  0.00015845  0.71371573  1
  Na  Na1  1  0.25012336  -0.00015870  0.71371474  1
  Na  Na2  1  0.50012341  0.25015861  0.96371463  1
  Na  Na3  1  0.75012342  -0.00015864  0.21371473  1
  Na  Na4  1  0.00012338  0.25015866  0.46371461  1
  Na  Na5  1  -0.00012334  0.24984151  0.96371586  1
  Na  Na6  1  0.24987668  0.00015843  0.21371573  1
  Na  Na7  1  0.00012340  0.75015861  0.96371462  1
  Na  Na8  1  -0.00012344  0.74984155  0.46371588  1
  Na  Na9  1  0.24987664  0.50015845  0.71371574  1
  Na  Na10  1  0.75012337  0.49984131  0.71371474  1
  Na  Na11  1  0.50012338  0.75015864  0.46371460  1
  Na  Na12  1  0.49987657  0.24984154  0.46371589  1
  Na  Na13  1  0.49987664  0.74984151  0.96371587  1
  Na  Na14  1  0.74987668  0.50015843  0.21371575  1
  Na  Na15  1  0.25012343  0.49984135  0.21371474  1
  Br  Br16  1  -0.00003189  0.74989536  0.21355812  1
  Br  Br17  1  0.00003192  0.25010456  0.21355842  1
  Br  Br18  1  0.25003185  -0.00010451  0.46355837  1
  Br  Br19  1  0.50003185  0.25010455  0.71355844  1
  Br  Br20  1  0.75003190  -0.00010453  0.96355837  1
  Br  Br21  1  0.24996806  0.50010472  0.46355816  1
  Br  Br22  1  0.49996810  0.74989534  0.71355811  1
  Br  Br23  1  0.75003186  0.49989548  0.46355838  1
  Br  Br24  1  0.24996811  0.00010466  0.96355816  1
  Br  Br25  1  0.49996811  0.24989536  0.21355813  1
  Br  Br26  1  0.50003192  0.75010456  0.21355842  1
  Br  Br27  1  0.25003190  0.49989547  0.96355838  1
  Br  Br28  1  0.74996811  0.50010466  0.96355816  1
  Br  Br29  1  0.74996806  0.00010472  0.46355815  1
  Br  Br30  1  -0.00003191  0.24989533  0.71355811  1
  Br  Br31  1  0.00003185  0.75010455  0.71355843  1
