# generated using pymatgen
data_KI
_symmetry_space_group_name_H-M   'P 1'
_cell_length_a   9.61807984
_cell_length_b   9.61822009
_cell_length_c   4.55232661
_cell_angle_alpha   90.01346913
_cell_angle_beta   90.00517027
_cell_angle_gamma   89.99970442
_symmetry_Int_Tables_number   1
_chemical_formula_structural   KI
_chemical_formula_sum   'K4 I4'
_cell_volume   421.13029818
_cell_formula_units_Z   4
loop_
 _symmetry_equiv_pos_site_id
 _symmetry_equiv_pos_as_xyz
  1  'x, y, z'
loop_
 _atom_site_type_symbol
 _atom_site_label
 _atom_site_symmetry_multiplicity
 _atom_site_fract_x
 _atom_site_fract_y
 _atom_site_fract_z
 _atom_site_occupancy
  K  K0  1  0.85206630  0.35312688  0.66134272  1
  K  K1  1  0.14792995  0.64687229  0.66121865  1
  K  K2  1  0.35312601  0.14792890  0.66156668  1
  K  K3  1  0.64687661  0.85207110  0.66099511  1
  I  I4  1  0.84484930  0.65601220  0.16114972  1
  I  I5  1  0.15515022  0.34398633  0.16167259  1
  I  I6  1  0.65601620  0.15514801  0.16126273  1
  I  I7  1  0.34398540  0.84485428  0.16156008  1
