# generated using pymatgen
data_LiI
_symmetry_space_group_name_H-M   'P 1'
_cell_length_a   12.51037980
_cell_length_b   12.51014966
_cell_length_c   9.06330209
_cell_angle_alpha   89.99390637
_cell_angle_beta   90.00512548
_cell_angle_gamma   119.99825005
_symmetry_Int_Tables_number   1
_chemical_formula_structural   LiI
_chemical_formula_sum   'Li18 I18'
_cell_volume   1228.45072900
_cell_formula_units_Z   18
loop_
 _symmetry_equiv_pos_site_id
 _symmetry_equiv_pos_as_xyz
  1  'x, y, z'
loop_
 _atom_site_type_symbol
 _atom_site_label
 _atom_site_symmetry_multiplicity
 _atom_site_fract_x
 _atom_site_fract_y
 _atom_site_fract_z
 _atom_site_occupancy
  Li  Li0  1  0.27176270  0.32916036  0.05565357  1
  Li  Li1  1  0.27179689  -0.05742490  0.55562726  1
  Li  Li2  1  0.00420926  0.39491714  0.22229693  1
  Li  Li3  1  0.39074866  0.99584288  0.22229577  1
  Li  Li4  1  0.33749842  0.27596974  0.38898155  1
  Li  Li5  1  0.67080045  -0.05742614  0.05567389  1
  Li  Li6  1  0.39073690  0.39487365  0.72227059  1
  Li  Li7  1  0.00416327  0.60925401  0.72230122  1
  Li  Li8  1  0.05742430  0.72820470  0.05563034  1
  Li  Li9  1  0.05742733  0.32920417  0.55566735  1
  Li  Li10  1  0.60508348  0.99579579  0.72228735  1
  Li  Li11  1  0.60512233  0.60925837  0.22226572  1
  Li  Li12  1  0.72403195  0.06149885  0.38894560  1
  Li  Li13  1  0.72402972  0.66250433  0.88897519  1
  Li  Li14  1  0.67084173  0.72823699  0.55566260  1
  Li  Li15  1  0.33753461  0.06153891  0.88897168  1
  Li  Li16  1  0.93846123  0.66246744  0.38895958  1
  Li  Li17  1  0.93850064  0.27597092  0.88894182  1
  I  I18  1  0.77500184  0.57760133  0.62769282  1
  I  I19  1  0.77501775  0.19738670  0.12773806  1
  I  I20  1  0.75568065  0.89167264  0.79438198  1
  I  I21  1  0.13595842  0.24436505  0.79437047  1
  I  I22  1  0.08903843  0.53073942  0.96105603  1
  I  I23  1  0.42234239  0.19743370  0.62767879  1
  I  I24  1  0.13600746  0.89166058  0.29441655  1
  I  I25  1  0.75563736  0.86404110  0.29437168  1
  I  I26  1  0.80260847  0.22497794  0.62774025  1
  I  I27  1  0.80256765  0.57765916  0.12767908  1
  I  I28  1  0.10832383  0.24431679  0.29438431  1
  I  I29  1  0.10833400  0.86399251  0.79441616  1
  I  I30  1  0.46930469  0.55836124  0.96110880  1
  I  I31  1  0.46926387  0.91096542  0.46105250  1
  I  I32  1  0.42240091  0.22499494  0.12769148  1
  I  I33  1  0.08908661  0.55837688  0.46107393  1
  I  I34  1  0.44162115  0.91091534  0.96107482  1
  I  I35  1  0.44163064  0.53069203  0.46110761  1
