# generated using pymatgen
data_LiBr
_symmetry_space_group_name_H-M   'P 1'
_cell_length_a   5.35405382
_cell_length_b   5.56734117
_cell_length_c   5.56066061
_cell_angle_alpha   90.00220717
_cell_angle_beta   90.00217438
_cell_angle_gamma   90.00010054
_symmetry_Int_Tables_number   1
_chemical_formula_structural   LiBr
_chemical_formula_sum   'Li4 Br4'
_cell_volume   165.75130542
_cell_formula_units_Z   4
loop_
 _symmetry_equiv_pos_site_id
 _symmetry_equiv_pos_as_xyz
  1  'x, y, z'
loop_
 _atom_site_type_symbol
 _atom_site_label
 _atom_site_symmetry_multiplicity
 _atom_site_fract_x
 _atom_site_fract_y
 _atom_site_fract_z
 _atom_site_occupancy
  Li  Li0  1  -0.00016582  0.25072688  0.87998180  1
  Li  Li1  1  0.49983422  0.74926903  0.87998188  1
  Li  Li2  1  0.00016809  0.74927368  0.37998600  1
  Li  Li3  1  0.50016709  0.25073031  0.37998190  1
  Br  Br4  1  0.49990437  0.74986495  0.37948131  1
  Br  Br5  1  -0.00009527  0.25013365  0.37948206  1
  Br  Br6  1  0.50009411  0.25014077  0.87948035  1
  Br  Br7  1  0.00009322  0.74986074  0.87948007  1
