# generated using pymatgen
data_NaI
_symmetry_space_group_name_H-M   'P 1'
_cell_length_a   8.02898458
_cell_length_b   8.93843051
_cell_length_c   4.71494542
_cell_angle_alpha   89.97547890
_cell_angle_beta   125.67247433
_cell_angle_gamma   90.01325515
_symmetry_Int_Tables_number   1
_chemical_formula_structural   NaI
_chemical_formula_sum   'Na4 I4'
_cell_volume   274.88375235
_cell_formula_units_Z   4
loop_
 _symmetry_equiv_pos_site_id
 _symmetry_equiv_pos_as_xyz
  1  'x, y, z'
loop_
 _atom_site_type_symbol
 _atom_site_label
 _atom_site_symmetry_multiplicity
 _atom_site_fract_x
 _atom_site_fract_y
 _atom_site_fract_z
 _atom_site_occupancy
  Na  Na0  1  0.24882005  0.12067544  -0.00174759  1
  Na  Na1  1  0.25118396  0.62045154  0.00096410  1
  Na  Na2  1  0.75133235  0.87953332  0.00175328  1
  Na  Na3  1  0.74861997  0.37949165  -0.00130300  1
  I  I4  1  0.75044796  0.62726404  0.50005072  1
  I  I5  1  0.74940532  0.12747559  0.49995403  1
  I  I6  1  0.24961382  0.37256661  0.50034057  1
  I  I7  1  0.25057657  0.87254181  0.49998789  1
