# generated using pymatgen
data_NaI
_symmetry_space_group_name_H-M   'P 1'
_cell_length_a   7.75808876
_cell_length_b   9.10615834
_cell_length_c   7.87348438
_cell_angle_alpha   89.99995677
_cell_angle_beta   90.00000937
_cell_angle_gamma   89.99964642
_symmetry_Int_Tables_number   1
_chemical_formula_structural   NaI
_chemical_formula_sum   'Na8 I8'
_cell_volume   556.23320593
_cell_formula_units_Z   8
loop_
 _symmetry_equiv_pos_site_id
 _symmetry_equiv_pos_as_xyz
  1  'x, y, z'
loop_
 _atom_site_type_symbol
 _atom_site_label
 _atom_site_symmetry_multiplicity
 _atom_site_fract_x
 _atom_site_fract_y
 _atom_site_fract_z
 _atom_site_occupancy
  Na  Na0  1  -0.00033472  0.12308408  0.25122935  1
  Na  Na1  1  -0.00033187  0.37691692  0.75122169  1
  Na  Na2  1  0.49966540  0.37691819  0.74877149  1
  Na  Na3  1  0.50033294  0.87691686  0.75122113  1
  Na  Na4  1  0.00033177  0.62308310  0.24877812  1
  Na  Na5  1  0.50033453  0.62308181  0.25122848  1
  Na  Na6  1  0.49966710  0.12308314  0.24877899  1
  Na  Na7  1  0.00033474  0.87691590  0.74877074  1
  I  I8  1  0.25104299  0.62632089  0.91738900  1
  I  I9  1  0.25104273  0.87367817  0.41738802  1
  I  I10  1  0.75104322  0.87367868  0.08261042  1
  I  I11  1  0.24895762  0.37367877  0.41738893  1
  I  I12  1  0.74895731  0.12632179  0.58261201  1
  I  I13  1  0.24895679  0.12632136  0.91738961  1
  I  I14  1  0.75104239  0.62632124  0.58261102  1
  I  I15  1  0.74895706  0.37367912  0.08261101  1
