# generated using pymatgen
data_LiI
_symmetry_space_group_name_H-M   'P 1'
_cell_length_a   4.66342059
_cell_length_b   6.80193653
_cell_length_c   8.28835066
_cell_angle_alpha   90.00019383
_cell_angle_beta   89.99991728
_cell_angle_gamma   90.00000687
_symmetry_Int_Tables_number   1
_chemical_formula_structural   LiI
_chemical_formula_sum   'Li4 I4'
_cell_volume   262.90889387
_cell_formula_units_Z   4
loop_
 _symmetry_equiv_pos_site_id
 _symmetry_equiv_pos_as_xyz
  1  'x, y, z'
loop_
 _atom_site_type_symbol
 _atom_site_label
 _atom_site_symmetry_multiplicity
 _atom_site_fract_x
 _atom_site_fract_y
 _atom_site_fract_z
 _atom_site_occupancy
  Li  Li0  1  0.00052157  0.07947122  0.41006400  1
  Li  Li1  1  0.99947831  0.57947206  0.08993482  1
  Li  Li2  1  0.49947850  0.92052744  0.91006651  1
  Li  Li3  1  0.50052166  0.42052814  0.58993476  1
  I  I4  1  0.00051508  0.49462730  0.41756941  1
  I  I5  1  0.99948501  -0.00537280  0.08243018  1
  I  I6  1  0.49948537  0.50537349  0.91756959  1
  I  I7  1  0.50051450  0.00537314  0.58243073  1
