# generated using pymatgen
data_KBr
_symmetry_space_group_name_H-M   'P 1'
_cell_length_a   9.15603494
_cell_length_b   4.19133651
_cell_length_c   7.91060533
_cell_angle_alpha   89.99981961
_cell_angle_beta   89.99999956
_cell_angle_gamma   89.99990449
_symmetry_Int_Tables_number   1
_chemical_formula_structural   KBr
_chemical_formula_sum   'K4 Br4'
_cell_volume   303.57757575
_cell_formula_units_Z   4
loop_
 _symmetry_equiv_pos_site_id
 _symmetry_equiv_pos_as_xyz
  1  'x, y, z'
loop_
 _atom_site_type_symbol
 _atom_site_label
 _atom_site_symmetry_multiplicity
 _atom_site_fract_x
 _atom_site_fract_y
 _atom_site_fract_z
 _atom_site_occupancy
  K  K0  1  0.37455937  0.00131480  0.06571784  1
  K  K1  1  0.87455945  -0.00131488  0.06571782  1
  K  K2  1  0.62544055  -0.00131481  0.56571837  1
  K  K3  1  0.12544063  0.00131489  0.56571837  1
  Br  Br4  1  0.37538670  0.50177670  0.73095691  1
  Br  Br5  1  0.87538660  0.49822335  0.73095689  1
  Br  Br6  1  0.62461337  0.49822329  0.23095876  1
  Br  Br7  1  0.12461333  0.50177665  0.23095896  1
