# generated using pymatgen
data_LiBr
_symmetry_space_group_name_H-M   'P 1'
_cell_length_a   10.60568906
_cell_length_b   10.60262873
_cell_length_c   12.76415155
_cell_angle_alpha   90.00589020
_cell_angle_beta   89.99458325
_cell_angle_gamma   119.99891925
_symmetry_Int_Tables_number   1
_chemical_formula_structural   LiBr
_chemical_formula_sum   'Li18 Br18'
_cell_volume   1243.02468890
_cell_formula_units_Z   18
loop_
 _symmetry_equiv_pos_site_id
 _symmetry_equiv_pos_as_xyz
  1  'x, y, z'
loop_
 _atom_site_type_symbol
 _atom_site_label
 _atom_site_symmetry_multiplicity
 _atom_site_fract_x
 _atom_site_fract_y
 _atom_site_fract_z
 _atom_site_occupancy
  Li  Li0  1  0.75592997  -0.02428041  0.91153783  1
  Li  Li1  1  0.44692838  0.08932278  0.42180832  1
  Li  Li2  1  0.24406683  0.02428621  0.08846217  1
  Li  Li3  1  0.21973954  0.24401543  0.91152375  1
  Li  Li4  1  0.64249477  0.55305774  0.42180999  1
  Li  Li5  1  -0.02416785  0.21973192  0.08848227  1
  Li  Li6  1  0.69083234  0.11360090  0.24485108  1
  Li  Li7  1  0.02416496  0.78027200  0.91151607  1
  Li  Li8  1  0.78025733  0.75599459  0.08848019  1
  Li  Li9  1  0.30916047  -0.11360834  0.75514838  1
  Li  Li10  1  0.35749823  0.44693765  0.57818920  1
  Li  Li11  1  -0.11359523  0.57733929  0.24485414  1
  Li  Li12  1  0.11359295  0.42266513  0.75514717  1
  Li  Li13  1  0.55307229  0.91066889  0.57818825  1
  Li  Li14  1  0.42259809  0.30904019  0.24487351  1
  Li  Li15  1  0.57740239  0.69094560  0.75512731  1
  Li  Li16  1  0.91073446  0.35760941  0.42179453  1
  Li  Li17  1  0.08926324  0.64238522  0.57821161  1
  Br  Br18  1  0.97180115  0.22615530  0.88759517  1
  Br  Br19  1  0.41233841  0.30515157  0.44576411  1
  Br  Br20  1  0.02821085  0.77385224  0.11240768  1
  Br  Br21  1  0.25433106  0.02818357  0.88756917  1
  Br  Br22  1  0.89287695  0.58771057  0.44569658  1
  Br  Br23  1  0.22620957  0.25437759  0.11236142  1
  Br  Br24  1  0.44045383  0.07895571  0.22097526  1
  Br  Br25  1  0.77379180  0.74562635  0.88763844  1
  Br  Br26  1  0.74567302  0.97181713  0.11243232  1
  Br  Br27  1  0.55954131  0.92104436  0.77902781  1
  Br  Br28  1  0.10712402  0.41228811  0.55430055  1
  Br  Br29  1  0.92099301  0.36151137  0.22090245  1
  Br  Br30  1  0.07901011  0.63848634  0.77909434  1
  Br  Br31  1  0.58766428  0.69485294  0.55422993  1
  Br  Br32  1  0.63847404  0.55949142  0.22092781  1
  Br  Br33  1  0.36153397  0.44050823  0.77907338  1
  Br  Br34  1  0.69486892  0.10717782  0.44574169  1
  Br  Br35  1  0.30513055  0.89282517  0.55425613  1
