# generated using pymatgen
data_NaI
_symmetry_space_group_name_H-M   'P 1'
_cell_length_a   8.92061155
_cell_length_b   5.15388861
_cell_length_c   7.93650820
_cell_angle_alpha   89.96909604
_cell_angle_beta   89.99988399
_cell_angle_gamma   90.00001051
_symmetry_Int_Tables_number   1
_chemical_formula_structural   NaI
_chemical_formula_sum   'Na4 I4'
_cell_volume   364.88756421
_cell_formula_units_Z   4
loop_
 _symmetry_equiv_pos_site_id
 _symmetry_equiv_pos_as_xyz
  1  'x, y, z'
loop_
 _atom_site_type_symbol
 _atom_site_label
 _atom_site_symmetry_multiplicity
 _atom_site_fract_x
 _atom_site_fract_y
 _atom_site_fract_z
 _atom_site_occupancy
  Na  Na0  1  0.91176981  0.74774641  0.91219907  1
  Na  Na1  1  0.41177447  0.25217316  0.91212766  1
  Na  Na2  1  0.08822881  0.25213293  0.41214326  1
  Na  Na3  1  0.58823486  0.74778821  0.41221454  1
  I  I4  1  0.92137512  0.75197090  0.30346772  1
  I  I5  1  0.42136446  0.24810886  0.30338378  1
  I  I6  1  0.07863185  0.24818917  0.80337408  1
  I  I7  1  0.57862063  0.75189036  0.80345869  1
