# generated using pymatgen
data_LiBr
_symmetry_space_group_name_H-M   'P 1'
_cell_length_a   8.06396420
_cell_length_b   8.06391129
_cell_length_c   7.84300240
_cell_angle_alpha   90.00004456
_cell_angle_beta   89.99998348
_cell_angle_gamma   90.00004137
_symmetry_Int_Tables_number   1
_chemical_formula_structural   LiBr
_chemical_formula_sum   'Li8 Br8'
_cell_volume   510.00763862
_cell_formula_units_Z   8
loop_
 _symmetry_equiv_pos_site_id
 _symmetry_equiv_pos_as_xyz
  1  'x, y, z'
loop_
 _atom_site_type_symbol
 _atom_site_label
 _atom_site_symmetry_multiplicity
 _atom_site_fract_x
 _atom_site_fract_y
 _atom_site_fract_z
 _atom_site_occupancy
  Li  Li0  1  0.14823006  0.64847821  0.09905594  1
  Li  Li1  1  0.14847708  0.35176944  0.40094433  1
  Li  Li2  1  0.85177039  0.35152204  0.09905555  1
  Li  Li3  1  0.35152454  0.14823151  0.90094421  1
  Li  Li4  1  0.64847610  0.85176907  0.90094393  1
  Li  Li5  1  0.35176941  -0.14847694  0.59905644  1
  Li  Li6  1  -0.14847728  0.64823021  0.40094422  1
  Li  Li7  1  0.64823055  0.14847668  0.59905523  1
  Br  Br8  1  0.66896091  0.16914803  0.92495162  1
  Br  Br9  1  0.66914570  0.83103729  0.57504846  1
  Br  Br10  1  0.33103968  0.83085253  0.92495217  1
  Br  Br11  1  0.83085363  0.66896042  0.07504859  1
  Br  Br12  1  0.16914683  0.33103952  0.07504906  1
  Br  Br13  1  0.83104060  0.33085148  0.42495051  1
  Br  Br14  1  0.33085361  0.16896216  0.57504820  1
  Br  Br15  1  0.16895820  0.66914833  0.42495153  1
