# generated using pymatgen
data_LiBr
_symmetry_space_group_name_H-M   'P 1'
_cell_length_a   6.75589887
_cell_length_b   3.90562007
_cell_length_c   7.72687156
_cell_angle_alpha   90.00003913
_cell_angle_beta   125.38902980
_cell_angle_gamma   89.99997842
_symmetry_Int_Tables_number   1
_chemical_formula_structural   LiBr
_chemical_formula_sum   'Li4 Br4'
_cell_volume   166.21170750
_cell_formula_units_Z   4
loop_
 _symmetry_equiv_pos_site_id
 _symmetry_equiv_pos_as_xyz
  1  'x, y, z'
loop_
 _atom_site_type_symbol
 _atom_site_label
 _atom_site_symmetry_multiplicity
 _atom_site_fract_x
 _atom_site_fract_y
 _atom_site_fract_z
 _atom_site_occupancy
  Li  Li0  1  0.11280131  0.50265968  0.38285150  1
  Li  Li1  1  0.61280214  0.00266154  0.38285222  1
  Li  Li2  1  0.11280213  0.49733800  0.88285272  1
  Li  Li3  1  0.61280126  -0.00265981  0.88285153  1
  Br  Br4  1  0.11290275  0.00106988  0.13229584  1
  Br  Br5  1  0.61290269  0.50107092  0.13229574  1
  Br  Br6  1  0.11290257  -0.00107063  0.63229577  1
  Br  Br7  1  0.61290264  0.49893043  0.63229589  1
