# generated using pymatgen
data_LiBr
_symmetry_space_group_name_H-M   'P 1'
_cell_length_a   9.40366753
_cell_length_b   9.40310823
_cell_length_c   9.21700385
_cell_angle_alpha   89.99416813
_cell_angle_beta   90.01172218
_cell_angle_gamma   120.03932193
_symmetry_Int_Tables_number   1
_chemical_formula_structural   LiBr
_chemical_formula_sum   'Li9 Br9'
_cell_volume   705.53225568
_cell_formula_units_Z   9
loop_
 _symmetry_equiv_pos_site_id
 _symmetry_equiv_pos_as_xyz
  1  'x, y, z'
loop_
 _atom_site_type_symbol
 _atom_site_label
 _atom_site_symmetry_multiplicity
 _atom_site_fract_x
 _atom_site_fract_y
 _atom_site_fract_z
 _atom_site_occupancy
  Li  Li0  1  0.26215678  0.13040619  0.43406062  1
  Li  Li1  1  0.20344788  0.79849787  0.10107926  1
  Li  Li2  1  0.59534118  0.79681213  0.10096485  1
  Li  Li3  1  0.53685054  0.46516192  0.76781530  1
  Li  Li4  1  -0.07142296  0.46340067  0.76769435  1
  Li  Li5  1  0.53461228  0.07136889  0.76763630  1
  Li  Li6  1  0.86980757  0.13173834  0.43414223  1
  Li  Li7  1  0.20126892  0.40460564  0.10091898  1
  Li  Li8  1  0.86803344  0.73776566  0.43400168  1
  Br  Br9  1  0.02879954  0.51540167  0.01811530  1
  Br  Br10  1  0.81765235  0.18006383  0.68448609  1
  Br  Br11  1  0.36215231  0.18216598  0.68460032  1
  Br  Br12  1  0.15123512  0.84695018  0.35119317  1
  Br  Br13  1  0.69546293  0.84857120  0.35129043  1
  Br  Br14  1  0.15325752  0.30453760  0.35126046  1
  Br  Br15  1  0.48440475  0.51345902  0.01801692  1
  Br  Br16  1  0.82016536  0.63786806  0.68456529  1
  Br  Br17  1  0.48677449  0.97122514  0.01807931  1
