# generated using pymatgen
data_NaI
_symmetry_space_group_name_H-M   'P 1'
_cell_length_a   16.50693682
_cell_length_b   16.06797446
_cell_length_c   4.63613106
_cell_angle_alpha   90.06060158
_cell_angle_beta   89.99134892
_cell_angle_gamma   90.48572560
_symmetry_Int_Tables_number   1
_chemical_formula_structural   NaI
_chemical_formula_sum   'Na16 I16'
_cell_volume   1229.61024496
_cell_formula_units_Z   16
loop_
 _symmetry_equiv_pos_site_id
 _symmetry_equiv_pos_as_xyz
  1  'x, y, z'
loop_
 _atom_site_type_symbol
 _atom_site_label
 _atom_site_symmetry_multiplicity
 _atom_site_fract_x
 _atom_site_fract_y
 _atom_site_fract_z
 _atom_site_occupancy
  Na  Na0  1  0.38426444  0.73082090  0.84995489  1
  Na  Na1  1  0.61578396  0.26915201  0.84993732  1
  Na  Na2  1  0.86654317  0.98081882  0.07632371  1
  Na  Na3  1  0.11578402  0.26915228  0.34993929  1
  Na  Na4  1  0.36654309  0.98081885  0.57632093  1
  Na  Na5  1  0.63338750  0.51916061  0.07631222  1
  Na  Na6  1  0.88426458  0.73082127  0.34995387  1
  Na  Na7  1  0.36654319  0.48081880  0.07632149  1
  Na  Na8  1  0.63338744  0.01916056  0.57631122  1
  Na  Na9  1  0.88426458  0.23082123  0.84995383  1
  Na  Na10  1  0.11578402  0.76915220  0.84993928  1
  Na  Na11  1  0.86654306  0.48081880  0.57632382  1
  Na  Na12  1  0.13338757  0.51916052  0.57630869  1
  Na  Na13  1  0.13338751  0.01916049  0.07630827  1
  Na  Na14  1  0.38426450  0.23082098  0.34995403  1
  Na  Na15  1  0.61578388  0.76915205  0.34993823  1
  I  I16  1  0.97044687  0.13058035  0.33321244  1
  I  I17  1  0.02961448  0.86944228  0.33403100  1
  I  I18  1  0.27797074  0.38197084  0.55881343  1
  I  I19  1  0.52961435  0.86944164  0.83403038  1
  I  I20  1  0.77797054  0.38197085  0.05881507  1
  I  I21  1  0.22198895  0.11805449  0.55945060  1
  I  I22  1  0.47044691  0.13057974  0.83321246  1
  I  I23  1  0.77797055  0.88197093  0.55881479  1
  I  I24  1  0.22198900  0.61805444  0.05945122  1
  I  I25  1  0.47044688  0.63057964  0.33321355  1
  I  I26  1  0.52961446  0.36944152  0.33402930  1
  I  I27  1  0.27797065  0.88197078  0.05881261  1
  I  I28  1  0.72198897  0.11805464  0.05945295  1
  I  I29  1  0.72198890  0.61805472  0.55945412  1
  I  I30  1  0.97044682  0.63058039  0.83321224  1
  I  I31  1  0.02961444  0.36944236  0.83403127  1
