# generated using pymatgen
data_LiI
_symmetry_space_group_name_H-M   'P 1'
_cell_length_a   6.91222943
_cell_length_b   7.37892983
_cell_length_c   4.22382145
_cell_angle_alpha   89.99732375
_cell_angle_beta   90.00039100
_cell_angle_gamma   90.00053087
_symmetry_Int_Tables_number   1
_chemical_formula_structural   LiI
_chemical_formula_sum   'Li4 I4'
_cell_volume   215.43540437
_cell_formula_units_Z   4
loop_
 _symmetry_equiv_pos_site_id
 _symmetry_equiv_pos_as_xyz
  1  'x, y, z'
loop_
 _atom_site_type_symbol
 _atom_site_label
 _atom_site_symmetry_multiplicity
 _atom_site_fract_x
 _atom_site_fract_y
 _atom_site_fract_z
 _atom_site_occupancy
  Li  Li0  1  0.49958795  0.74916563  0.84603233  1
  Li  Li1  1  -0.00041318  0.75083510  0.84603283  1
  Li  Li2  1  0.50041126  0.25083437  0.34602985  1
  Li  Li3  1  0.00041230  0.24916474  0.34602953  1
  I  I4  1  0.75006736  0.08406642  0.84509085  1
  I  I5  1  0.25006742  0.41593443  0.84509055  1
  I  I6  1  0.24993352  0.91593447  0.34509180  1
  I  I7  1  0.74993337  0.58406484  0.34509238  1
