# generated using pymatgen
data_LiI
_symmetry_space_group_name_H-M   'P 1'
_cell_length_a   12.36101418
_cell_length_b   10.12730371
_cell_length_c   9.57611779
_cell_angle_alpha   90.00002741
_cell_angle_beta   89.99985815
_cell_angle_gamma   89.76939954
_symmetry_Int_Tables_number   1
_chemical_formula_structural   LiI
_chemical_formula_sum   'Li16 I16'
_cell_volume   1198.76457670
_cell_formula_units_Z   16
loop_
 _symmetry_equiv_pos_site_id
 _symmetry_equiv_pos_as_xyz
  1  'x, y, z'
loop_
 _atom_site_type_symbol
 _atom_site_label
 _atom_site_symmetry_multiplicity
 _atom_site_fract_x
 _atom_site_fract_y
 _atom_site_fract_z
 _atom_site_occupancy
  Li  Li0  1  0.88945892  0.24974873  0.84276563  1
  Li  Li1  1  0.11055009  0.75025405  0.84276198  1
  Li  Li2  1  0.36069102  0.49994403  0.09279284  1
  Li  Li3  1  0.61054691  0.75025245  0.34276335  1
  Li  Li4  1  0.86069004  0.49994158  0.59278866  1
  Li  Li5  1  0.13931650  0.00005519  0.09279323  1
  Li  Li6  1  0.38946110  0.24975092  0.34276672  1
  Li  Li7  1  0.86068423  -0.00005524  0.09278916  1
  Li  Li8  1  0.13931130  0.50005336  0.59278954  1
  Li  Li9  1  0.38944800  0.74975048  0.84276249  1
  Li  Li10  1  0.61054540  0.25025149  0.84276221  1
  Li  Li11  1  0.36068696  -0.00005584  0.59278892  1
  Li  Li12  1  0.63931371  0.00005454  0.59279469  1
  Li  Li13  1  0.63930957  0.50005303  0.09278986  1
  Li  Li14  1  0.88944832  0.74975039  0.34276222  1
  Li  Li15  1  0.11054677  0.25025029  0.34276168  1
  I  I16  1  0.50080306  0.28425949  0.09335368  1
  I  I17  1  0.49919491  0.71573512  0.09335315  1
  I  I18  1  0.75067085  0.53433716  0.34201455  1
  I  I19  1  -0.00080254  0.71573433  0.59335514  1
  I  I20  1  0.25067013  0.53433646  0.84201502  1
  I  I21  1  0.74932346  -0.03433194  0.34201088  1
  I  I22  1  0.00080312  0.28425801  0.59335552  1
  I  I23  1  0.25067592  0.03433958  0.34201157  1
  I  I24  1  0.74932838  0.46565881  0.84201206  1
  I  I25  1  0.00080309  0.78426859  0.09335286  1
  I  I26  1  -0.00080284  0.21573467  0.09335900  1
  I  I27  1  0.75067378  0.03433917  0.84201407  1
  I  I28  1  0.24932455  -0.03433022  0.84201109  1
  I  I29  1  0.24932799  0.46565886  0.34201446  1
  I  I30  1  0.50080161  0.78426696  0.59335741  1
  I  I31  1  0.49919572  0.21573551  0.59336068  1
