# generated using pymatgen
data_NaBr
_symmetry_space_group_name_H-M   'P 1'
_cell_length_a   7.27623048
_cell_length_b   4.19333106
_cell_length_c   7.21935315
_cell_angle_alpha   89.99977174
_cell_angle_beta   89.99940141
_cell_angle_gamma   90.00000936
_symmetry_Int_Tables_number   1
_chemical_formula_structural   NaBr
_chemical_formula_sum   'Na4 Br4'
_cell_volume   220.27432796
_cell_formula_units_Z   4
loop_
 _symmetry_equiv_pos_site_id
 _symmetry_equiv_pos_as_xyz
  1  'x, y, z'
loop_
 _atom_site_type_symbol
 _atom_site_label
 _atom_site_symmetry_multiplicity
 _atom_site_fract_x
 _atom_site_fract_y
 _atom_site_fract_z
 _atom_site_occupancy
  Na  Na0  1  0.24957284  0.74594580  0.41932755  1
  Na  Na1  1  0.74957215  0.25405441  0.41932709  1
  Na  Na2  1  0.75042877  0.25405415  0.91932539  1
  Na  Na3  1  0.25042814  0.74594621  0.91932574  1
  Br  Br4  1  0.08324720  0.24770954  0.16912519  1
  Br  Br5  1  0.58324768  0.75229027  0.16912599  1
  Br  Br6  1  0.91675144  0.75228956  0.66912528  1
  Br  Br7  1  0.41675178  0.24771005  0.66912449  1
