# generated using pymatgen
data_LiBr
_symmetry_space_group_name_H-M   'P 1'
_cell_length_a   11.26521523
_cell_length_b   11.26537753
_cell_length_c   8.06337614
_cell_angle_alpha   90.00250434
_cell_angle_beta   89.99899194
_cell_angle_gamma   120.00798587
_symmetry_Int_Tables_number   1
_chemical_formula_structural   LiBr
_chemical_formula_sum   'Li18 Br18'
_cell_volume   886.13081902
_cell_formula_units_Z   18
loop_
 _symmetry_equiv_pos_site_id
 _symmetry_equiv_pos_as_xyz
  1  'x, y, z'
loop_
 _atom_site_type_symbol
 _atom_site_label
 _atom_site_symmetry_multiplicity
 _atom_site_fract_x
 _atom_site_fract_y
 _atom_site_fract_z
 _atom_site_occupancy
  Li  Li0  1  0.73723801  0.86916930  0.01199736  1
  Li  Li1  1  0.73729498  0.86802087  0.51198186  1
  Li  Li2  1  0.46416331  -0.07058004  0.17866152  1
  Li  Li3  1  0.46523425  0.53586304  0.17858446  1
  Li  Li4  1  0.79746006  0.20141875  0.34524762  1
  Li  Li5  1  0.13080057  0.86809087  0.01191343  1
  Li  Li6  1  0.46533458  -0.07061767  0.67866471  1
  Li  Li7  1  0.46413139  0.53476260  0.67857854  1
  Li  Li8  1  0.13198121  0.26271151  0.01200362  1
  Li  Li9  1  0.13191086  0.86919858  0.51191008  1
  Li  Li10  1  0.07057627  0.53584712  0.67865823  1
  Li  Li11  1  0.07061261  0.53468649  0.17866459  1
  Li  Li12  1  0.79866068  0.59604551  0.34533584  1
  Li  Li13  1  0.79856357  0.20252178  0.84524593  1
  Li  Li14  1  0.13081786  0.26275621  0.51200277  1
  Li  Li15  1  0.79749193  0.59608293  0.84531450  1
  Li  Li16  1  0.40391190  0.20250923  0.34532799  1
  Li  Li17  1  0.40395650  0.20135155  0.84532520  1
  Br  Br18  1  0.54556333  0.45351316  0.92078676  1
  Br  Br19  1  0.54553776  0.09209920  0.42106066  1
  Br  Br20  1  0.87981957  0.12109638  0.08746029  1
  Br  Br21  1  0.24124951  0.12013143  0.08763160  1
  Br  Br22  1  0.21320260  0.42541843  0.25430742  1
  Br  Br23  1  0.54654153  0.09207896  0.92097512  1
  Br  Br24  1  0.24123009  0.12112592  0.58772984  1
  Br  Br25  1  0.87988565  0.75875951  0.58763238  1
  Br  Br26  1  0.90788968  0.45444958  0.92105661  1
  Br  Br27  1  0.90791652  0.45346139  0.42097460  1
  Br  Br28  1  0.87889448  0.12017852  0.58746018  1
  Br  Br29  1  0.87886705  0.75876325  0.08772567  1
  Br  Br30  1  0.57456780  0.78778701  0.25439035  1
  Br  Br31  1  0.57459309  0.78680487  0.75430819  1
  Br  Br32  1  0.54649556  0.45443610  0.42078534  1
  Br  Br33  1  0.21317298  0.78777612  0.75412657  1
  Br  Br34  1  0.21223014  0.78684235  0.25411291  1
  Br  Br35  1  0.21220212  0.42543919  0.75440407  1
