# generated using pymatgen
data_LiBr
_symmetry_space_group_name_H-M   'P 1'
_cell_length_a   11.16537987
_cell_length_b   11.16667218
_cell_length_c   9.88576885
_cell_angle_alpha   90.02624812
_cell_angle_beta   89.98278167
_cell_angle_gamma   120.04853777
_symmetry_Int_Tables_number   1
_chemical_formula_structural   LiBr
_chemical_formula_sum   'Li18 Br18'
_cell_volume   1066.90484119
_cell_formula_units_Z   18
loop_
 _symmetry_equiv_pos_site_id
 _symmetry_equiv_pos_as_xyz
  1  'x, y, z'
loop_
 _atom_site_type_symbol
 _atom_site_label
 _atom_site_symmetry_multiplicity
 _atom_site_fract_x
 _atom_site_fract_y
 _atom_site_fract_z
 _atom_site_occupancy
  Li  Li0  1  0.68331301  0.02202299  0.66635471  1
  Li  Li1  1  0.32794073  0.01658762  0.66696399  1
  Li  Li2  1  0.31668943  0.97797818  0.33364394  1
  Li  Li3  1  0.33872370  0.31674649  0.66637154  1
  Li  Li4  1  0.68882538  0.67231101  0.66702103  1
  Li  Li5  1  0.02215740  0.33898141  0.33368978  1
  Li  Li6  1  0.64450782  0.99435044  -0.00035674  1
  Li  Li7  1  0.97784264  0.66102055  0.66631123  1
  Li  Li8  1  0.66127313  0.68325125  0.33362947  1
  Li  Li9  1  0.35549553  0.00565068  0.00035515  1
  Li  Li10  1  0.31117133  0.32768452  0.33297910  1
  Li  Li11  1  0.00539549  0.65008184  -0.00029797  1
  Li  Li12  1  0.99460403  0.34991847  0.00029761  1
  Li  Li13  1  0.67206301  -0.01658587  0.33303513  1
  Li  Li14  1  0.34997726  0.35535663  -0.00031093  1
  Li  Li15  1  0.65001885  0.64464065  0.00031143  1
  Li  Li16  1  -0.01664929  0.31130950  0.66697905  1
  Li  Li17  1  0.01664939  0.68869326  0.33302076  1
  Br  Br18  1  0.47045960  0.53538059  0.81326263  1
  Br  Br19  1  0.60205783  0.80391016  0.52018383  1
  Br  Br20  1  0.52953486  0.46461553  0.18673982  1
  Br  Br21  1  0.06461078  0.52942326  0.81314894  1
  Br  Br22  1  0.20202455  0.39805712  0.52011084  1
  Br  Br23  1  0.53536213  0.06472549  0.18677705  1
  Br  Br24  1  0.13130377  0.26860517  0.14655828  1
  Br  Br25  1  0.46464082  0.93527649  0.81322302  1
  Br  Br26  1  0.93539124  0.47057859  0.18685116  1
  Br  Br27  1  0.86869128  0.73138851  0.85344347  1
  Br  Br28  1  0.79797670  0.60194293  0.47988773  1
  Br  Br29  1  0.73127757  0.86275530  0.14648234  1
  Br  Br30  1  0.26872057  0.13724350  0.85351869  1
  Br  Br31  1  0.39794583  0.19609206  0.47981655  1
  Br  Br32  1  0.13713072  0.86871716  0.14659423  1
  Br  Br33  1  0.86287287  0.13128611  0.85340400  1
  Br  Br34  1  0.19620770  0.79795385  0.52007015  1
  Br  Br35  1  0.80379234  0.20204855  0.47992898  1
