# generated using pymatgen
data_LiBr
_symmetry_space_group_name_H-M   'P 1'
_cell_length_a   3.96870174
_cell_length_b   3.96846652
_cell_length_c   10.46366463
_cell_angle_alpha   90.00006703
_cell_angle_beta   89.99973290
_cell_angle_gamma   90.00589915
_symmetry_Int_Tables_number   1
_chemical_formula_structural   LiBr
_chemical_formula_sum   'Li4 Br4'
_cell_volume   164.79915889
_cell_formula_units_Z   4
loop_
 _symmetry_equiv_pos_site_id
 _symmetry_equiv_pos_as_xyz
  1  'x, y, z'
loop_
 _atom_site_type_symbol
 _atom_site_label
 _atom_site_symmetry_multiplicity
 _atom_site_fract_x
 _atom_site_fract_y
 _atom_site_fract_z
 _atom_site_occupancy
  Li  Li0  1  -0.00034597  0.49972204  0.77183435  1
  Li  Li1  1  0.50006230  -0.00013027  0.52203458  1
  Li  Li2  1  0.00034460  0.50027995  0.27183150  1
  Li  Li3  1  0.49993847  0.00013020  0.02203342  1
  Br  Br4  1  0.50013170  -0.00013572  0.27204479  1
  Br  Br5  1  -0.00019183  0.49992611  0.02177084  1
  Br  Br6  1  0.49986619  0.00013529  0.77204565  1
  Br  Br7  1  0.00019454  0.50007238  0.52177259  1
