# generated using pymatgen
data_LiI
_symmetry_space_group_name_H-M   'P 1'
_cell_length_a   8.15450951
_cell_length_b   4.71675697
_cell_length_c   6.76673358
_cell_angle_alpha   90.00000222
_cell_angle_beta   89.99998567
_cell_angle_gamma   89.99975813
_symmetry_Int_Tables_number   1
_chemical_formula_structural   LiI
_chemical_formula_sum   'Li4 I4'
_cell_volume   260.26778792
_cell_formula_units_Z   4
loop_
 _symmetry_equiv_pos_site_id
 _symmetry_equiv_pos_as_xyz
  1  'x, y, z'
loop_
 _atom_site_type_symbol
 _atom_site_label
 _atom_site_symmetry_multiplicity
 _atom_site_fract_x
 _atom_site_fract_y
 _atom_site_fract_z
 _atom_site_occupancy
  Li  Li0  1  0.16620885  0.50627680  0.20294508  1
  Li  Li1  1  0.66620663  -0.00627324  0.20294417  1
  Li  Li2  1  0.83379127  0.49372307  0.70294470  1
  Li  Li3  1  0.33379328  0.00627326  0.70294394  1
  I  I4  1  0.66721318  -0.00593764  0.79504386  1
  I  I5  1  0.16721341  0.50594301  0.79504394  1
  I  I6  1  0.33278679  0.00593765  0.29504397  1
  I  I7  1  0.83278660  0.49405710  0.29504363  1
