# generated using pymatgen
data_KI
_symmetry_space_group_name_H-M   'P 1'
_cell_length_a   14.80725004
_cell_length_b   14.80724593
_cell_length_c   9.40635653
_cell_angle_alpha   89.99821246
_cell_angle_beta   90.00172552
_cell_angle_gamma   119.99673524
_symmetry_Int_Tables_number   1
_chemical_formula_structural   KI
_chemical_formula_sum   'K18 I18'
_cell_volume   1786.13817753
_cell_formula_units_Z   18
loop_
 _symmetry_equiv_pos_site_id
 _symmetry_equiv_pos_as_xyz
  1  'x, y, z'
loop_
 _atom_site_type_symbol
 _atom_site_label
 _atom_site_symmetry_multiplicity
 _atom_site_fract_x
 _atom_site_fract_y
 _atom_site_fract_z
 _atom_site_occupancy
  K  K0  1  0.94440035  0.19443010  0.95934953  1
  K  K1  1  0.94439922  0.74996838  0.45935784  1
  K  K2  1  0.13889200  0.72223425  0.12599794  1
  K  K3  1  0.58333887  0.86110738  0.12598990  1
  K  K4  1  0.47220472  0.08329526  0.29263995  1
  K  K5  1  0.80556321  0.74996536  0.95934384  1
  K  K6  1  0.58333820  0.72223239  0.62599965  1
  K  K7  1  0.13889260  0.41666112  0.62599007  1
  K  K8  1  0.25003164  0.05560080  0.95935781  1
  K  K9  1  0.25003464  0.19443675  0.45934376  1
  K  K10  1  0.27776573  0.86110803  0.62599787  1
  K  K11  1  0.27776763  0.41666177  0.12599975  1
  K  K12  1  -0.08329396  0.38891160  0.29264739  1
  K  K13  1  -0.08329528  0.52779528  0.79263980  1
  K  K14  1  0.80556991  0.05559960  0.45934965  1
  K  K15  1  0.47220772  0.38891003  0.79264496  1
  K  K16  1  0.61108990  0.52779230  0.29264486  1
  K  K17  1  0.61108845  0.08329392  0.79264747  1
  I  I18  1  0.09616497  0.48286834  -0.01513476  1
  I  I19  1  0.09616762  0.61329606  0.48486885  1
  I  I20  1  0.85050424  0.57052611  0.15159677  1
  I  I21  1  0.72002032  0.14949515  0.15159454  1
  I  I22  1  0.18379690  0.94665465  0.31819737  1
  I  I23  1  0.51713472  0.61330247  -0.01513479  1
  I  I24  1  0.72002539  0.57052266  0.65159632  1
  I  I25  1  0.85050481  0.27997972  0.65159451  1
  I  I26  1  0.38670392  0.90383238  -0.01513124  1
  I  I27  1  0.38669757  0.48286526  0.48486526  1
  I  I28  1  0.42947380  0.14949578  0.65159690  1
  I  I29  1  0.42947745  0.27997470  0.15159648  1
  I  I30  1  0.05335446  0.23714475  0.31819760  1
  I  I31  1  0.05334541  0.81620308  0.81819734  1
  I  I32  1  0.51713159  0.90383491  0.48486518  1
  I  I33  1  0.18379759  0.23715167  0.81819572  1
  I  I34  1  0.76284833  0.81620240  0.31819578  1
  I  I35  1  0.76285535  0.94664560  0.81819767  1
