# generated using pymatgen
data_LiBr
_symmetry_space_group_name_H-M   'P 1'
_cell_length_a   11.39237091
_cell_length_b   11.39241132
_cell_length_c   7.99151483
_cell_angle_alpha   90.00898144
_cell_angle_beta   89.99140658
_cell_angle_gamma   119.99213246
_symmetry_Int_Tables_number   1
_chemical_formula_structural   LiBr
_chemical_formula_sum   'Li18 Br18'
_cell_volume   898.30523808
_cell_formula_units_Z   18
loop_
 _symmetry_equiv_pos_site_id
 _symmetry_equiv_pos_as_xyz
  1  'x, y, z'
loop_
 _atom_site_type_symbol
 _atom_site_label
 _atom_site_symmetry_multiplicity
 _atom_site_fract_x
 _atom_site_fract_y
 _atom_site_fract_z
 _atom_site_occupancy
  Li  Li0  1  0.87072081  0.73878513  -0.04081746  1
  Li  Li1  1  0.87069047  0.13177820  0.45938001  1
  Li  Li2  1  0.59454944  0.79594783  0.12586062  1
  Li  Li3  1  0.20153375  0.40559723  0.12595733  1
  Li  Li4  1  -0.07227099  0.46512765  0.29264206  1
  Li  Li5  1  0.26106508  0.13179436  -0.04069375  1
  Li  Li6  1  0.20155412  0.79597588  0.62603762  1
  Li  Li7  1  0.59440404  -0.20153223  0.62597687  1
  Li  Li8  1  0.86822103  0.12931252  -0.04062380  1
  Li  Li9  1  0.86819863  0.73893146  0.45929414  1
  Li  Li10  1  0.20406111  0.40545189  0.62584752  1
  Li  Li11  1  0.20401847  -0.20156129  0.12604306  1
  Li  Li12  1  0.53488413  0.46264443  0.29270016  1
  Li  Li13  1  0.53486831  0.07226997  0.79263715  1
  Li  Li14  1  0.26121532  0.12927777  0.45918868  1
  Li  Li15  1  -0.07211320  0.46261054  0.79252647  1
  Li  Li16  1  0.53738709  0.07211847  0.29252931  1
  Li  Li17  1  0.53735699  0.46511013  0.79270714  1
  Br  Br18  1  0.75865144  0.88043930  0.38519297  1
  Br  Br19  1  0.75871216  0.87823689  0.88503819  1
  Br  Br20  1  0.45289939  0.90801783  0.55186398  1
  Br  Br21  1  0.45506131  0.54720061  0.55170238  1
  Br  Br22  1  0.78613645  0.21161090  0.71837388  1
  Br  Br23  1  0.11946955  0.87827479  0.38503547  1
  Br  Br24  1  0.45509825  0.90795843  0.05170585  1
  Br  Br25  1  0.45280159  0.54494520  0.05169673  1
  Br  Br26  1  0.12176769  0.24129171  0.38502785  1
  Br  Br27  1  0.12172228  0.88052606  0.88503816  1
  Br  Br28  1  0.09198191  0.54710012  0.05186370  1
  Br  Br29  1  0.09204710  0.54489964  0.55170045  1
  Br  Br30  1  0.78843452  0.57462373  0.71836267  1
  Br  Br31  1  0.78838665  0.21386074  0.21837896  1
  Br  Br32  1  0.11956224  0.24134993  0.88518030  1
  Br  Br33  1  0.78622784  0.57468369  0.21851632  1
  Br  Br34  1  0.42531635  0.21377137  0.71852506  1
  Br  Br35  1  0.42537869  0.21156912  0.21836609  1
