# generated using pymatgen
data_LiBr
_symmetry_space_group_name_H-M   'P 1'
_cell_length_a   10.53423206
_cell_length_b   9.76325862
_cell_length_c   9.09873592
_cell_angle_alpha   89.99999005
_cell_angle_beta   90.00016612
_cell_angle_gamma   90.01810657
_symmetry_Int_Tables_number   1
_chemical_formula_structural   LiBr
_chemical_formula_sum   'Li16 Br16'
_cell_volume   935.79067550
_cell_formula_units_Z   16
loop_
 _symmetry_equiv_pos_site_id
 _symmetry_equiv_pos_as_xyz
  1  'x, y, z'
loop_
 _atom_site_type_symbol
 _atom_site_label
 _atom_site_symmetry_multiplicity
 _atom_site_fract_x
 _atom_site_fract_y
 _atom_site_fract_z
 _atom_site_occupancy
  Li  Li0  1  0.15343441  0.50052404  0.40387289  1
  Li  Li1  1  0.84656634  0.49947704  0.40387521  1
  Li  Li2  1  0.09656747  0.75046773  0.65393189  1
  Li  Li3  1  0.34656479  0.49947737  0.90387487  1
  Li  Li4  1  0.59656762  0.75046858  0.15393156  1
  Li  Li5  1  0.40343192  0.74953112  0.65393037  1
  Li  Li6  1  0.65343545  0.50052368  0.90387298  1
  Li  Li7  1  0.59656803  0.25046813  0.65393193  1
  Li  Li8  1  0.40343221  0.24953054  0.15392957  1
  Li  Li9  1  0.65343451  0.00052401  0.40387293  1
  Li  Li10  1  0.34656571  -0.00052297  0.40387553  1
  Li  Li11  1  0.09656821  0.25046824  0.15393178  1
  Li  Li12  1  -0.09656880  0.74953037  0.15392935  1
  Li  Li13  1  -0.09656744  0.24953122  0.65393013  1
  Li  Li14  1  0.15343437  0.00052340  0.90387313  1
  Li  Li15  1  0.84656557  -0.00052225  0.90387536  1
  Br  Br16  1  0.24943624  0.04552287  0.15450752  1
  Br  Br17  1  0.75056343  0.95447624  0.15450724  1
  Br  Br18  1  0.00050823  0.29552164  0.40451544  1
  Br  Br19  1  0.25056367  0.95447637  0.65450725  1
  Br  Br20  1  0.50050752  0.29552201  0.90451495  1
  Br  Br21  1  0.49949183  0.20447891  0.40451553  1
  Br  Br22  1  0.74943627  0.04552328  0.65450762  1
  Br  Br23  1  0.50050828  0.79552166  0.40451565  1
  Br  Br24  1  0.49949260  0.70447828  0.90451495  1
  Br  Br25  1  0.74943532  0.54552296  0.15450801  1
  Br  Br26  1  0.25056430  0.45447655  0.15450691  1
  Br  Br27  1  0.00050735  0.79552158  0.90451541  1
  Br  Br28  1  -0.00050751  0.20447890  0.90451515  1
  Br  Br29  1  -0.00050787  0.70447880  0.40451525  1
  Br  Br30  1  0.24943599  0.54552299  0.65450781  1
  Br  Br31  1  0.75056397  0.45447670  0.65450757  1
