# generated using pymatgen
data_LiBr
_symmetry_space_group_name_H-M   'P 1'
_cell_length_a   7.23238892
_cell_length_b   4.20611795
_cell_length_c   6.72749268
_cell_angle_alpha   89.99975980
_cell_angle_beta   89.99998061
_cell_angle_gamma   89.99992763
_symmetry_Int_Tables_number   1
_chemical_formula_structural   LiBr
_chemical_formula_sum   'Li4 Br4'
_cell_volume   204.65221678
_cell_formula_units_Z   4
loop_
 _symmetry_equiv_pos_site_id
 _symmetry_equiv_pos_as_xyz
  1  'x, y, z'
loop_
 _atom_site_type_symbol
 _atom_site_label
 _atom_site_symmetry_multiplicity
 _atom_site_fract_x
 _atom_site_fract_y
 _atom_site_fract_z
 _atom_site_occupancy
  Li  Li0  1  0.41488705  0.24853822  0.70043907  1
  Li  Li1  1  -0.08511521  0.75146381  0.70042776  1
  Li  Li2  1  0.58511456  0.75146659  0.20042805  1
  Li  Li3  1  0.08511382  0.24853854  0.20043765  1
  Br  Br4  1  0.08068650  0.25111276  0.82026685  1
  Br  Br5  1  0.58068709  0.74888105  0.82026813  1
  Br  Br6  1  0.91931223  0.74888338  0.32026693  1
  Br  Br7  1  0.41931394  0.25111565  0.32026827  1
