# generated using pymatgen
data_NaI
_symmetry_space_group_name_H-M   'P 1'
_cell_length_a   9.24719417
_cell_length_b   9.24719180
_cell_length_c   13.00993850
_cell_angle_alpha   89.99984266
_cell_angle_beta   89.99984477
_cell_angle_gamma   89.99998276
_symmetry_Int_Tables_number   1
_chemical_formula_structural   NaI
_chemical_formula_sum   'Na16 I16'
_cell_volume   1112.48736172
_cell_formula_units_Z   16
loop_
 _symmetry_equiv_pos_site_id
 _symmetry_equiv_pos_as_xyz
  1  'x, y, z'
loop_
 _atom_site_type_symbol
 _atom_site_label
 _atom_site_symmetry_multiplicity
 _atom_site_fract_x
 _atom_site_fract_y
 _atom_site_fract_z
 _atom_site_occupancy
  Na  Na0  1  0.74856848  0.50052815  0.41804789  1
  Na  Na1  1  0.00052827  0.74856835  0.66804775  1
  Na  Na2  1  0.25143174  0.50052889  0.91804296  1
  Na  Na3  1  0.25143174  0.49947204  0.41804278  1
  Na  Na4  1  -0.00052794  0.25143198  0.66804294  1
  Na  Na5  1  0.49947211  0.24856815  0.66804771  1
  Na  Na6  1  0.50052879  0.75143174  0.66804274  1
  Na  Na7  1  -0.00052805  0.74856809  0.16804769  1
  Na  Na8  1  0.00052876  0.25143159  0.16804310  1
  Na  Na9  1  0.75143205  -0.00052790  0.91804269  1
  Na  Na10  1  0.49947204  0.75143174  0.16804250  1
  Na  Na11  1  0.24856837  0.00052821  0.91804772  1
  Na  Na12  1  0.50052812  0.24856824  0.16804775  1
  Na  Na13  1  0.75143168  0.00052881  0.41804284  1
  Na  Na14  1  0.24856809  -0.00052787  0.41804760  1
  Na  Na15  1  0.74856809  0.49947210  0.91804783  1
  I  I16  1  0.25063038  0.49985579  0.16723168  1
  I  I17  1  -0.00014416  0.25063056  0.41723168  1
  I  I18  1  0.74937028  0.49985544  0.66723384  1
  I  I19  1  0.74937000  0.50014327  0.16723389  1
  I  I20  1  0.00014323  0.74936990  0.41723380  1
  I  I21  1  0.50014317  0.75063060  0.41723151  1
  I  I22  1  0.49985536  0.24937005  0.41723385  1
  I  I23  1  0.00014313  0.25063028  0.91723167  1
  I  I24  1  -0.00014447  0.74937046  0.91723389  1
  I  I25  1  0.24937037  0.00014339  0.66723384  1
  I  I26  1  0.50014336  0.24937016  0.91723380  1
  I  I27  1  0.75063015  -0.00014415  0.66723162  1
  I  I28  1  0.49985582  0.75063041  0.91723156  1
  I  I29  1  0.24937022  -0.00014465  0.16723376  1
  I  I30  1  0.75063037  0.00014304  0.16723157  1
  I  I31  1  0.25063047  0.50014314  0.66723158  1
