# generated using pymatgen
data_LiI
_symmetry_space_group_name_H-M   'P 1'
_cell_length_a   16.61540427
_cell_length_b   13.87277592
_cell_length_c   4.28471353
_cell_angle_alpha   89.99379983
_cell_angle_beta   89.99986558
_cell_angle_gamma   90.01803882
_symmetry_Int_Tables_number   1
_chemical_formula_structural   LiI
_chemical_formula_sum   'Li16 I16'
_cell_volume   987.63404204
_cell_formula_units_Z   16
loop_
 _symmetry_equiv_pos_site_id
 _symmetry_equiv_pos_as_xyz
  1  'x, y, z'
loop_
 _atom_site_type_symbol
 _atom_site_label
 _atom_site_symmetry_multiplicity
 _atom_site_fract_x
 _atom_site_fract_y
 _atom_site_fract_z
 _atom_site_occupancy
  Li  Li0  1  0.65484793  0.19130866  0.23951997  1
  Li  Li1  1  0.34515141  0.80868756  0.23949080  1
  Li  Li2  1  0.59558816  0.44164358  0.48674878  1
  Li  Li3  1  0.84515084  0.80868627  0.73946774  1
  Li  Li4  1  0.09558700  0.44164152  -0.01324777  1
  Li  Li5  1  0.90440754  0.05835127  0.48674589  1
  Li  Li6  1  0.15485429  0.19129986  0.73954593  1
  Li  Li7  1  0.09557795  0.94163183  0.48678462  1
  Li  Li8  1  0.90441105  0.55835500  -0.01325219  1
  Li  Li9  1  0.15485414  0.69130173  0.23950428  1
  Li  Li10  1  0.84515429  0.30868861  0.23949105  1
  Li  Li11  1  0.59558339  0.94164043  -0.01321448  1
  Li  Li12  1  0.40441169  0.05834932  -0.01324657  1
  Li  Li13  1  0.40441512  0.55835414  0.48677156  1
  Li  Li14  1  0.65484852  0.69130750  0.73950814  1
  Li  Li15  1  0.34515351  0.30868814  0.73950491  1
  I  I16  1  0.94145566  0.87169162  0.27396006  1
  I  I17  1  0.05853927  0.12831063  0.27411036  1
  I  I18  1  0.30862337  0.12194401  0.52160046  1
  I  I19  1  0.55853811  0.12831523  0.77407678  1
  I  I20  1  0.80861858  0.12194630  0.02159824  1
  I  I21  1  0.19138094  0.37805936  0.52165484  1
  I  I22  1  0.44146005  0.87169070  0.77399221  1
  I  I23  1  0.80861841  0.62194142  0.52159745  1
  I  I24  1  0.19137922  0.87806480  0.02168369  1
  I  I25  1  0.44146312  0.37169428  0.27401509  1
  I  I26  1  0.55853935  0.62831947  0.27405313  1
  I  I27  1  0.30862291  0.62194021  0.02161369  1
  I  I28  1  0.69138144  0.37806608  0.02164527  1
  I  I29  1  0.69137946  0.87806836  0.52168203  1
  I  I30  1  0.94146210  0.37169498  0.77399558  1
  I  I31  1  0.05854117  0.62831714  0.77405253  1
