# generated using pymatgen
data_NaI
_symmetry_space_group_name_H-M   'P 1'
_cell_length_a   8.93882828
_cell_length_b   8.93878980
_cell_length_c   7.94593859
_cell_angle_alpha   89.99996303
_cell_angle_beta   90.00001030
_cell_angle_gamma   120.06762537
_symmetry_Int_Tables_number   1
_chemical_formula_structural   NaI
_chemical_formula_sum   'Na6 I6'
_cell_volume   549.46344716
_cell_formula_units_Z   6
loop_
 _symmetry_equiv_pos_site_id
 _symmetry_equiv_pos_as_xyz
  1  'x, y, z'
loop_
 _atom_site_type_symbol
 _atom_site_label
 _atom_site_symmetry_multiplicity
 _atom_site_fract_x
 _atom_site_fract_y
 _atom_site_fract_z
 _atom_site_occupancy
  Na  Na0  1  0.33478514  0.33181335  0.58939287  1
  Na  Na1  1  0.00298682  0.33481672  0.08939387  1
  Na  Na2  1  -0.00298715  0.66518328  0.58939371  1
  Na  Na3  1  0.33194130  -0.00294988  0.08937196  1
  Na  Na4  1  0.66805889  0.00295005  0.58937193  1
  Na  Na5  1  0.66521477  0.66818665  0.08939274  1
  I  I6  1  0.99773470  0.66531282  0.98097260  1
  I  I7  1  0.33236563  0.99783619  0.48097947  1
  I  I8  1  0.66763444  0.00216360  0.98097919  1
  I  I9  1  0.66543637  0.66776068  0.48096779  1
  I  I10  1  0.33456349  0.33223935  0.98096771  1
  I  I11  1  0.00226560  0.33468719  0.48097261  1
