# generated using pymatgen
data_LiBr
_symmetry_space_group_name_H-M   'P 1'
_cell_length_a   13.83129954
_cell_length_b   13.83130561
_cell_length_c   13.83130242
_cell_angle_alpha   90.00002049
_cell_angle_beta   89.99992751
_cell_angle_gamma   89.99995852
_symmetry_Int_Tables_number   1
_chemical_formula_structural   LiBr
_chemical_formula_sum   'Li48 Br48'
_cell_volume   2645.99635608
_cell_formula_units_Z   48
loop_
 _symmetry_equiv_pos_site_id
 _symmetry_equiv_pos_as_xyz
  1  'x, y, z'
loop_
 _atom_site_type_symbol
 _atom_site_label
 _atom_site_symmetry_multiplicity
 _atom_site_fract_x
 _atom_site_fract_y
 _atom_site_fract_z
 _atom_site_occupancy
  Li  Li0  1  0.29784520  0.41243952  0.09356009  1
  Li  Li1  1  0.40644032  0.79784535  0.41243968  1
  Li  Li2  1  0.59356063  0.70215465  0.41243951  1
  Li  Li3  1  0.40644034  0.20215407  0.08755981  1
  Li  Li4  1  0.59355989  0.29784538  0.08756077  1
  Li  Li5  1  0.41243934  0.40643929  0.79784586  1
  Li  Li6  1  0.58756011  0.09355990  0.79784517  1
  Li  Li7  1  0.29784532  0.58756079  0.40643926  1
  Li  Li8  1  0.79784503  0.91243953  0.59356017  1
  Li  Li9  1  0.90644030  0.29784541  0.91243968  1
  Li  Li10  1  0.90643964  0.20215503  0.41243913  1
  Li  Li11  1  0.08756062  0.09356026  0.70215408  1
  Li  Li12  1  0.90643982  0.79784555  0.08756040  1
  Li  Li13  1  0.09356061  0.29784540  0.41243958  1
  Li  Li14  1  0.09355998  0.70215471  0.08756081  1
  Li  Li15  1  0.91243925  0.40643952  0.70215517  1
  Li  Li16  1  0.08756027  0.90644019  0.79784543  1
  Li  Li17  1  0.58756010  0.40644023  0.29784558  1
  Li  Li18  1  0.41243919  0.09356096  0.29784525  1
  Li  Li19  1  0.20215445  0.58756068  0.59356023  1
  Li  Li20  1  0.70215465  0.58756054  0.90643999  1
  Li  Li21  1  0.41243970  0.59355952  0.70215466  1
  Li  Li22  1  0.58756031  0.90643986  0.70215435  1
  Li  Li23  1  0.79784587  0.41243935  0.40643963  1
  Li  Li24  1  0.79784534  0.58756081  0.09356024  1
  Li  Li25  1  0.20215427  0.91243959  0.09356021  1
  Li  Li26  1  0.91243926  0.59356109  0.79784545  1
  Li  Li27  1  0.70215423  0.08756080  0.09356028  1
  Li  Li28  1  0.70215494  0.91243919  0.40643987  1
  Li  Li29  1  0.09356059  0.20215461  0.91243962  1
  Li  Li30  1  0.90644030  0.70215416  0.58755976  1
  Li  Li31  1  0.09356000  0.79784552  0.58756050  1
  Li  Li32  1  0.91243954  0.90643983  0.29784602  1
  Li  Li33  1  0.08755990  0.59355922  0.29784555  1
  Li  Li34  1  0.91243946  0.09355991  0.20215464  1
  Li  Li35  1  0.08756064  0.40643963  0.20215409  1
  Li  Li36  1  0.20215477  0.41243939  0.90643982  1
  Li  Li37  1  0.79784539  0.08756058  0.90643926  1
  Li  Li38  1  0.29784575  0.91243915  0.90643958  1
  Li  Li39  1  0.29784507  0.08756074  0.59356047  1
  Li  Li40  1  0.70215431  0.41243967  0.59356023  1
  Li  Li41  1  0.20215480  0.08756017  0.40644014  1
  Li  Li42  1  0.59355994  0.20215467  0.58756059  1
  Li  Li43  1  0.40643997  0.29784559  0.58756015  1
  Li  Li44  1  0.59356050  0.79784540  0.91243949  1
  Li  Li45  1  0.40643973  0.70215495  0.91243905  1
  Li  Li46  1  0.58756032  0.59356008  0.20215401  1
  Li  Li47  1  0.41243951  0.90643972  0.20215524  1
  Br  Br48  1  0.86369785  0.30932651  0.56183323  1
  Br  Br49  1  0.93816622  0.36369841  0.30932663  1
  Br  Br50  1  0.06183321  0.13630185  0.30932616  1
  Br  Br51  1  0.93816648  0.63630239  0.19067426  1
  Br  Br52  1  0.06183392  0.86369864  0.19067323  1
  Br  Br53  1  0.30932677  0.93816604  0.36369826  1
  Br  Br54  1  0.69067428  0.56183326  0.36369779  1
  Br  Br55  1  0.86369811  0.69067374  0.93816643  1
  Br  Br56  1  0.36369766  0.80932629  0.06183361  1
  Br  Br57  1  0.43816606  0.86369820  0.80932704  1
  Br  Br58  1  0.43816663  0.63630112  0.30932677  1
  Br  Br59  1  0.19067324  0.56183357  0.13630202  1
  Br  Br60  1  0.43816703  0.36369818  0.19067377  1
  Br  Br61  1  0.56183348  0.86369747  0.30932572  1
  Br  Br62  1  0.56183419  0.13630187  0.19067308  1
  Br  Br63  1  0.80932595  0.93816678  0.13630227  1
  Br  Br64  1  0.19067418  0.43816610  0.36369807  1
  Br  Br65  1  0.69067419  0.93816668  0.86369813  1
  Br  Br66  1  0.30932647  0.56183303  0.86369846  1
  Br  Br67  1  0.63630189  0.69067379  0.06183411  1
  Br  Br68  1  0.13630187  0.69067386  0.43816679  1
  Br  Br69  1  0.30932565  0.06183358  0.13630202  1
  Br  Br70  1  0.69067373  0.43816699  0.13630207  1
  Br  Br71  1  0.36369813  0.30932608  0.93816584  1
  Br  Br72  1  0.36369781  0.69067331  0.56183367  1
  Br  Br73  1  0.63630201  0.80932633  0.56183352  1
  Br  Br74  1  0.80932656  0.06183351  0.36369839  1
  Br  Br75  1  0.13630180  0.19067376  0.56183380  1
  Br  Br76  1  0.13630189  0.80932621  0.93816669  1
  Br  Br77  1  0.56183333  0.63630201  0.80932641  1
  Br  Br78  1  0.43816670  0.13630252  0.69067403  1
  Br  Br79  1  0.56183375  0.36369873  0.69067316  1
  Br  Br80  1  0.80932655  0.43816619  0.86369821  1
  Br  Br81  1  0.19067443  0.06183330  0.86369779  1
  Br  Br82  1  0.80932579  0.56183344  0.63630217  1
  Br  Br83  1  0.19067349  0.93816689  0.63630177  1
  Br  Br84  1  0.63630183  0.30932644  0.43816644  1
  Br  Br85  1  0.36369796  0.19067360  0.43816641  1
  Br  Br86  1  0.86369847  0.80932608  0.43816615  1
  Br  Br87  1  0.86369802  0.19067384  0.06183325  1
  Br  Br88  1  0.13630188  0.30932602  0.06183312  1
  Br  Br89  1  0.63630206  0.19067406  0.93816675  1
  Br  Br90  1  0.06183385  0.63630207  0.69067314  1
  Br  Br91  1  0.93816677  0.86369779  0.69067377  1
  Br  Br92  1  0.06183321  0.36369768  0.80932580  1
  Br  Br93  1  0.93816621  0.13630127  0.80932685  1
  Br  Br94  1  0.69067352  0.06183394  0.63630205  1
  Br  Br95  1  0.30932549  0.43816642  0.63630236  1
