# generated using pymatgen
data_LiI
_symmetry_space_group_name_H-M   'P 1'
_cell_length_a   11.12177520
_cell_length_b   11.12179569
_cell_length_c   8.94690839
_cell_angle_alpha   90.00003969
_cell_angle_beta   90.00001169
_cell_angle_gamma   89.99998846
_symmetry_Int_Tables_number   1
_chemical_formula_structural   LiI
_chemical_formula_sum   'Li16 I16'
_cell_volume   1106.67988355
_cell_formula_units_Z   16
loop_
 _symmetry_equiv_pos_site_id
 _symmetry_equiv_pos_as_xyz
  1  'x, y, z'
loop_
 _atom_site_type_symbol
 _atom_site_label
 _atom_site_symmetry_multiplicity
 _atom_site_fract_x
 _atom_site_fract_y
 _atom_site_fract_z
 _atom_site_occupancy
  Li  Li0  1  0.33487810  0.00115846  0.87573159  1
  Li  Li1  1  0.50115746  0.33487698  0.12573115  1
  Li  Li2  1  0.66512038  0.00115655  0.37573098  1
  Li  Li3  1  0.66512126  -0.00115516  0.87573117  1
  Li  Li4  1  0.49884405  0.66512306  0.12573080  1
  Li  Li5  1  -0.00115729  0.83487904  0.12573166  1
  Li  Li6  1  0.00115557  0.16512082  0.12573160  1
  Li  Li7  1  0.49884301  0.33487726  0.62573067  1
  Li  Li8  1  0.50115739  0.66512404  0.62573108  1
  Li  Li9  1  0.16512248  0.49884330  0.37573127  1
  Li  Li10  1  -0.00115599  0.16512050  0.62573146  1
  Li  Li11  1  0.83487912  0.50115754  0.37573129  1
  Li  Li12  1  0.00115592  0.83487853  0.62573199  1
  Li  Li13  1  0.16512119  0.50115580  0.87573085  1
  Li  Li14  1  0.83487789  0.49884094  0.87573094  1
  Li  Li15  1  0.33487731  -0.00115783  0.37573109  1
  I  I16  1  0.99852475  0.69021602  0.87558821  1
  I  I17  1  0.19021683  0.99852485  0.12558738  1
  I  I18  1  0.00147537  0.69021730  0.37558800  1
  I  I19  1  0.00147456  0.30978228  0.87558793  1
  I  I20  1  0.80978228  0.00147389  0.12558785  1
  I  I21  1  0.30978634  0.49852455  0.12558771  1
  I  I22  1  0.69021552  0.50147635  0.12558783  1
  I  I23  1  0.80978261  0.99852475  0.62558750  1
  I  I24  1  0.19021735  0.00147329  0.62558798  1
  I  I25  1  0.50147414  0.80978535  0.37558833  1
  I  I26  1  0.30978556  0.50147661  0.62558809  1
  I  I27  1  0.49852437  0.19021477  0.37558893  1
  I  I28  1  0.69021485  0.49852473  0.62558765  1
  I  I29  1  0.50147446  0.19021569  0.87558648  1
  I  I30  1  0.49852608  0.80978691  0.87558804  1
  I  I31  1  0.99852708  0.30978281  0.37558829  1
