# generated using pymatgen
data_LiBr
_symmetry_space_group_name_H-M   'P 1'
_cell_length_a   13.83951575
_cell_length_b   13.83951840
_cell_length_c   13.83951105
_cell_angle_alpha   89.99992811
_cell_angle_beta   89.99993767
_cell_angle_gamma   90.00000875
_symmetry_Int_Tables_number   1
_chemical_formula_structural   LiBr
_chemical_formula_sum   'Li48 Br48'
_cell_volume   2650.71245333
_cell_formula_units_Z   48
loop_
 _symmetry_equiv_pos_site_id
 _symmetry_equiv_pos_as_xyz
  1  'x, y, z'
loop_
 _atom_site_type_symbol
 _atom_site_label
 _atom_site_symmetry_multiplicity
 _atom_site_fract_x
 _atom_site_fract_y
 _atom_site_fract_z
 _atom_site_occupancy
  Li  Li0  1  0.90542448  0.20393508  0.41291314  1
  Li  Li1  1  0.08708507  0.40542582  0.20393399  1
  Li  Li2  1  0.91291400  0.09457424  0.20393379  1
  Li  Li3  1  0.08708713  0.59457398  0.29606578  1
  Li  Li4  1  0.91291110  0.90542519  0.29606457  1
  Li  Li5  1  0.20393341  0.08708564  0.40542604  1
  Li  Li6  1  0.79606465  0.41291412  0.40542489  1
  Li  Li7  1  0.90542459  0.79606594  0.08708650  1
  Li  Li8  1  0.40542507  0.70393476  0.91291419  1
  Li  Li9  1  0.58708719  0.90542485  0.70393534  1
  Li  Li10  1  0.58708783  0.59457662  0.20393635  1
  Li  Li11  1  0.29606442  0.41291376  0.09457586  1
  Li  Li12  1  0.58708738  0.40542472  0.29606388  1
  Li  Li13  1  0.41291423  0.90542638  0.20393379  1
  Li  Li14  1  0.41291298  0.09457424  0.29606540  1
  Li  Li15  1  0.70393521  0.08708835  0.09457499  1
  Li  Li16  1  0.29606559  0.58708496  0.40542579  1
  Li  Li17  1  0.79606570  0.08708524  0.90542521  1
  Li  Li18  1  0.20393563  0.41291289  0.90542523  1
  Li  Li19  1  0.59457584  0.79606426  0.91291250  1
  Li  Li20  1  0.09457380  0.79606682  0.58708458  1
  Li  Li21  1  0.20393480  0.91291291  0.09457532  1
  Li  Li22  1  0.79606642  0.58708633  0.09457506  1
  Li  Li23  1  0.40542353  0.20393610  0.08708847  1
  Li  Li24  1  0.40542342  0.79606387  0.41291110  1
  Li  Li25  1  0.59457394  0.70393426  0.41291502  1
  Li  Li26  1  0.70393293  0.91291369  0.40542755  1
  Li  Li27  1  0.09457560  0.29606382  0.41291176  1
  Li  Li28  1  0.09457370  0.70393501  0.08708723  1
  Li  Li29  1  0.41291379  0.59457614  0.70393557  1
  Li  Li30  1  0.58708667  0.09457405  0.79606520  1
  Li  Li31  1  0.41291312  0.40542475  0.79606383  1
  Li  Li32  1  0.70393409  0.58708553  0.90542707  1
  Li  Li33  1  0.29606574  0.91291405  0.90542607  1
  Li  Li34  1  0.70393638  0.41291285  0.59457621  1
  Li  Li35  1  0.29606623  0.08708608  0.59457375  1
  Li  Li36  1  0.59457573  0.20393611  0.58708745  1
  Li  Li37  1  0.40542433  0.29606468  0.58708659  1
  Li  Li38  1  0.90542517  0.70393563  0.58708808  1
  Li  Li39  1  0.90542377  0.29606391  0.91291080  1
  Li  Li40  1  0.09457405  0.20393458  0.91291460  1
  Li  Li41  1  0.59457355  0.29606584  0.08708475  1
  Li  Li42  1  0.91291280  0.59457392  0.79606575  1
  Li  Li43  1  0.08708846  0.90542422  0.79606486  1
  Li  Li44  1  0.91291550  0.40542681  0.70393253  1
  Li  Li45  1  0.08708729  0.09457493  0.70393554  1
  Li  Li46  1  0.79606647  0.91291376  0.59457462  1
  Li  Li47  1  0.20393573  0.58708865  0.59457628  1
  Br  Br48  1  0.30967179  0.56299953  0.86301034  1
  Br  Br49  1  0.63698946  0.80967172  0.56299954  1
  Br  Br50  1  0.36301233  0.69032806  0.56299819  1
  Br  Br51  1  0.63698939  0.19032723  0.93700102  1
  Br  Br52  1  0.36301199  0.30967339  0.93700180  1
  Br  Br53  1  0.56299899  0.63698839  0.80967308  1
  Br  Br54  1  0.43700170  0.86301097  0.80967255  1
  Br  Br55  1  0.30967246  0.43700182  0.63698806  1
  Br  Br56  1  0.80967197  0.06299823  0.36301084  1
  Br  Br57  1  0.13698985  0.30967161  0.06299967  1
  Br  Br58  1  0.13698870  0.19032724  0.56299837  1
  Br  Br59  1  0.93700242  0.86301193  0.69032834  1
  Br  Br60  1  0.13698924  0.80967168  0.93700197  1
  Br  Br61  1  0.86301113  0.30967115  0.56299921  1
  Br  Br62  1  0.86301175  0.69032709  0.93700218  1
  Br  Br63  1  0.06299808  0.63698879  0.69032804  1
  Br  Br64  1  0.93700089  0.13698833  0.80967061  1
  Br  Br65  1  0.43700092  0.63698744  0.30967185  1
  Br  Br66  1  0.56299789  0.86301055  0.30967303  1
  Br  Br67  1  0.19032730  0.43700092  0.36301040  1
  Br  Br68  1  0.69032748  0.43700141  0.13698787  1
  Br  Br69  1  0.56299911  0.36301148  0.69032775  1
  Br  Br70  1  0.43700105  0.13698972  0.69032803  1
  Br  Br71  1  0.80967297  0.56299813  0.63698749  1
  Br  Br72  1  0.80967224  0.43700164  0.86301023  1
  Br  Br73  1  0.19032697  0.06299812  0.86301189  1
  Br  Br74  1  0.06299861  0.36301090  0.80967339  1
  Br  Br75  1  0.69032828  0.93700092  0.86301089  1
  Br  Br76  1  0.69032683  0.06299813  0.63698786  1
  Br  Br77  1  0.86301250  0.19032821  0.06299745  1
  Br  Br78  1  0.13698933  0.69032736  0.43700154  1
  Br  Br79  1  0.86301182  0.80967281  0.43700273  1
  Br  Br80  1  0.06299826  0.13698885  0.30967180  1
  Br  Br81  1  0.93700077  0.36301139  0.30967243  1
  Br  Br82  1  0.06299682  0.86301268  0.19032748  1
  Br  Br83  1  0.93700160  0.63698937  0.19032892  1
  Br  Br84  1  0.19032699  0.56299885  0.13698807  1
  Br  Br85  1  0.80967088  0.93700231  0.13698770  1
  Br  Br86  1  0.30967210  0.06299778  0.13698796  1
  Br  Br87  1  0.30967174  0.93700167  0.36301091  1
  Br  Br88  1  0.69032830  0.56299981  0.36301064  1
  Br  Br89  1  0.19032894  0.93700109  0.63698857  1
  Br  Br90  1  0.36301077  0.19032775  0.43700102  1
  Br  Br91  1  0.63698906  0.30967310  0.43700107  1
  Br  Br92  1  0.36301147  0.80967167  0.06299923  1
  Br  Br93  1  0.63698948  0.69032830  0.06299917  1
  Br  Br94  1  0.43700095  0.36301124  0.19032827  1
  Br  Br95  1  0.56299790  0.13698889  0.19032771  1
