# generated using pymatgen
data_KI
_symmetry_space_group_name_H-M   'P 1'
_cell_length_a   7.17828747
_cell_length_b   7.19793817
_cell_length_c   7.18908607
_cell_angle_alpha   89.99898511
_cell_angle_beta   89.99996227
_cell_angle_gamma   90.00001028
_symmetry_Int_Tables_number   1
_chemical_formula_structural   KI
_chemical_formula_sum   'K4 I4'
_cell_volume   371.45194863
_cell_formula_units_Z   4
loop_
 _symmetry_equiv_pos_site_id
 _symmetry_equiv_pos_as_xyz
  1  'x, y, z'
loop_
 _atom_site_type_symbol
 _atom_site_label
 _atom_site_symmetry_multiplicity
 _atom_site_fract_x
 _atom_site_fract_y
 _atom_site_fract_z
 _atom_site_occupancy
  K  K0  1  0.25067184  0.00056694  0.30754040  1
  K  K1  1  0.75067161  0.49943228  0.30754050  1
  K  K2  1  0.74932826  -0.00056732  0.80753183  1
  K  K3  1  0.24932835  0.50056704  0.80753172  1
  I  I4  1  0.25057622  0.50054289  0.30788664  1
  I  I5  1  0.75057545  -0.00054211  0.30788571  1
  I  I6  1  0.74942385  0.49946056  0.80789373  1
  I  I7  1  0.24942441  0.00053972  0.80789465  1
