# generated using pymatgen
data_NaI
_symmetry_space_group_name_H-M   'P 1'
_cell_length_a   8.00590065
_cell_length_b   4.61396187
_cell_length_c   9.23711721
_cell_angle_alpha   90.00009865
_cell_angle_beta   125.22973421
_cell_angle_gamma   89.99940495
_symmetry_Int_Tables_number   1
_chemical_formula_structural   NaI
_chemical_formula_sum   'Na4 I4'
_cell_volume   278.71519693
_cell_formula_units_Z   4
loop_
 _symmetry_equiv_pos_site_id
 _symmetry_equiv_pos_as_xyz
  1  'x, y, z'
loop_
 _atom_site_type_symbol
 _atom_site_label
 _atom_site_symmetry_multiplicity
 _atom_site_fract_x
 _atom_site_fract_y
 _atom_site_fract_z
 _atom_site_occupancy
  Na  Na0  1  0.24990243  0.75093030  0.24889555  1
  Na  Na1  1  0.75009475  0.25093734  0.25110249  1
  Na  Na2  1  0.75009456  0.24906938  0.75110224  1
  Na  Na3  1  0.24990715  0.74906302  0.74889920  1
  I  I4  1  0.25028259  0.25063380  0.49934489  1
  I  I5  1  0.74971799  0.75063535  0.00065547  1
  I  I6  1  0.74971809  0.74936618  0.50065531  1
  I  I7  1  0.25028244  0.24936462  -0.00065516  1
