# generated using pymatgen
data_LiCl
_symmetry_space_group_name_H-M   'P 1'
_cell_length_a   10.63708028
_cell_length_b   10.63707544
_cell_length_c   6.57053878
_cell_angle_alpha   90.00117103
_cell_angle_beta   89.99883138
_cell_angle_gamma   120.00376852
_symmetry_Int_Tables_number   1
_chemical_formula_structural   LiCl
_chemical_formula_sum   'Li18 Cl18'
_cell_volume   643.81308296
_cell_formula_units_Z   18
loop_
 _symmetry_equiv_pos_site_id
 _symmetry_equiv_pos_as_xyz
  1  'x, y, z'
loop_
 _atom_site_type_symbol
 _atom_site_label
 _atom_site_symmetry_multiplicity
 _atom_site_fract_x
 _atom_site_fract_y
 _atom_site_fract_z
 _atom_site_occupancy
  Li  Li0  1  0.15224999  0.42084925  0.37536350  1
  Li  Li1  1  0.15225274  0.73140395  0.87535598  1
  Li  Li2  1  0.91244513  0.51440229  0.54228980  1
  Li  Li3  1  0.60195228  0.08757500  0.54230846  1
  Li  Li4  1  0.24580986  0.06472104  0.70888862  1
  Li  Li5  1  0.57914664  0.73141258  0.37535905  1
  Li  Li6  1  0.60195915  0.51439321  0.04230698  1
  Li  Li7  1  0.91242057  0.39804611  0.04230975  1
  Li  Li8  1  0.26860118  0.84774402  0.37535492  1
  Li  Li9  1  0.26858587  0.42084806  0.87535643  1
  Li  Li10  1  0.48559988  0.08755929  0.04228864  1
  Li  Li11  1  0.48560553  0.39804343  0.54230768  1
  Li  Li12  1  0.93529555  0.18108150  0.70890174  1
  Li  Li13  1  0.93527943  0.75418985  0.20888713  1
  Li  Li14  1  0.57914638  0.84774815  0.87536348  1
  Li  Li15  1  0.24579812  0.18108550  0.20889403  1
  Li  Li16  1  0.81891278  0.75419819  0.70889375  1
  Li  Li17  1  0.81891610  0.06470871  0.20890083  1
  Cl  Cl18  1  0.43996323  0.16772991  0.39558850  1
  Cl  Cl19  1  0.43997513  0.27223758  0.89558523  1
  Cl  Cl20  1  0.16560885  0.22670367  0.56224320  1
  Cl  Cl21  1  0.06109772  0.83439618  0.56223977  1
  Cl  Cl22  1  0.49895263  0.60556893  0.72887304  1
  Cl  Cl23  1  0.83226990  0.27223507  0.39557917  1
  Cl  Cl24  1  0.06109836  0.22669449  0.06224196  1
  Cl  Cl25  1  0.16560431  0.93890256  0.06223945  1
  Cl  Cl26  1  0.72776315  0.56002582  0.39558509  1
  Cl  Cl27  1  0.72776551  0.16773060  0.89558028  1
  Cl  Cl28  1  0.77329697  0.83439155  0.06224279  1
  Cl  Cl29  1  0.77330636  0.93890269  0.56224207  1
  Cl  Cl30  1  0.39443068  0.89338118  0.72887760  1
  Cl  Cl31  1  0.39443227  0.50104857  0.22887345  1
  Cl  Cl32  1  0.83227056  0.56003753  0.89558877  1
  Cl  Cl33  1  0.49895341  0.89338605  0.22887902  1
  Cl  Cl34  1  0.10661436  0.50104704  0.72887817  1
  Cl  Cl35  1  0.10661945  0.60557046  0.22887774  1
