# generated using pymatgen
data_LiI
_symmetry_space_group_name_H-M   'P 1'
_cell_length_a   12.42445475
_cell_length_b   12.42052280
_cell_length_c   8.63624301
_cell_angle_alpha   89.99989224
_cell_angle_beta   89.99988752
_cell_angle_gamma   89.99676718
_symmetry_Int_Tables_number   1
_chemical_formula_structural   LiI
_chemical_formula_sum   'Li16 I16'
_cell_volume   1332.72967696
_cell_formula_units_Z   16
loop_
 _symmetry_equiv_pos_site_id
 _symmetry_equiv_pos_as_xyz
  1  'x, y, z'
loop_
 _atom_site_type_symbol
 _atom_site_label
 _atom_site_symmetry_multiplicity
 _atom_site_fract_x
 _atom_site_fract_y
 _atom_site_fract_z
 _atom_site_occupancy
  Li  Li0  1  0.58258797  0.15490624  0.10406306  1
  Li  Li1  1  0.34512313  0.08255462  0.39593584  1
  Li  Li2  1  0.58260999  0.65489763  0.14594071  1
  Li  Li3  1  0.41741773  0.84509907  0.10405924  1
  Li  Li4  1  0.65487814  0.91743695  0.39594273  1
  Li  Li5  1  0.84512087  0.08255995  0.35404861  1
  Li  Li6  1  0.15487768  0.91743297  0.35404504  1
  Li  Li7  1  0.34511918  0.58255165  0.85406298  1
  Li  Li8  1  0.65486756  0.41746818  0.85405987  1
  Li  Li9  1  0.91740327  0.34510364  0.60405864  1
  Li  Li10  1  0.15486972  0.41743500  0.89593531  1
  Li  Li11  1  0.08259239  0.65488979  0.60405235  1
  Li  Li12  1  0.84514145  0.58255926  0.89594585  1
  Li  Li13  1  0.08258535  0.15488952  0.64592966  1
  Li  Li14  1  0.91741587  0.84510469  0.64592856  1
  Li  Li15  1  0.41739370  0.34510673  0.14594229  1
  I  I16  1  0.77291915  0.00415204  0.62736980  1
  I  I17  1  0.49585804  0.27296055  0.87263396  1
  I  I18  1  0.77292785  0.50415841  0.62263206  1
  I  I19  1  0.22707649  0.99584712  0.62737506  1
  I  I20  1  0.50414506  0.72704320  0.87263301  1
  I  I21  1  0.99585314  0.27293374  0.87736989  1
  I  I22  1  0.00414921  0.72706800  0.87737993  1
  I  I23  1  0.49586264  0.77293054  0.37738071  1
  I  I24  1  0.50413617  0.22706686  0.37737838  1
  I  I25  1  0.72709887  0.49585058  0.12737370  1
  I  I26  1  0.00413511  0.22705955  0.37262040  1
  I  I27  1  0.27290057  0.50414907  0.12737877  1
  I  I28  1  0.99585991  0.77293853  0.37262771  1
  I  I29  1  0.27292919  0.00414570  0.12263460  1
  I  I30  1  0.72706813  0.99585344  0.12262838  1
  I  I31  1  0.22707646  0.49584679  0.62263290  1
