# generated using pymatgen
data_LiBr
_symmetry_space_group_name_H-M   'P 1'
_cell_length_a   11.55612363
_cell_length_b   11.55612893
_cell_length_c   7.87199779
_cell_angle_alpha   90.00007021
_cell_angle_beta   89.99993764
_cell_angle_gamma   120.00289469
_symmetry_Int_Tables_number   1
_chemical_formula_structural   LiBr
_chemical_formula_sum   'Li18 Br18'
_cell_volume   910.39001243
_cell_formula_units_Z   18
loop_
 _symmetry_equiv_pos_site_id
 _symmetry_equiv_pos_as_xyz
  1  'x, y, z'
loop_
 _atom_site_type_symbol
 _atom_site_label
 _atom_site_symmetry_multiplicity
 _atom_site_fract_x
 _atom_site_fract_y
 _atom_site_fract_z
 _atom_site_occupancy
  Li  Li0  1  0.25934783  0.12753642  0.70674019  1
  Li  Li1  1  0.25935083  0.13181643  0.20674160  1
  Li  Li2  1  0.20583321  0.40733707  0.87355561  1
  Li  Li3  1  0.20149900  0.79416018  0.87355649  1
  Li  Li4  1  0.53915135  0.46512902  0.03953488  1
  Li  Li5  1  0.87246694  0.13181445  0.70673173  1
  Li  Li6  1  0.20150057  0.40733963  0.37355717  1
  Li  Li7  1  0.20583929  0.79850067  0.37355708  1
  Li  Li8  1  0.86818395  0.74064889  0.70673941  1
  Li  Li9  1  0.86818513  0.12753259  0.20673259  1
  Li  Li10  1  0.59266171  0.79416607  0.37355304  1
  Li  Li11  1  0.59265990  0.79850036  0.87355494  1
  Li  Li12  1  0.53487110  0.07402055  0.03953444  1
  Li  Li13  1  0.53487220  0.46084998  0.53953476  1
  Li  Li14  1  0.87246395  0.74065229  0.20673770  1
  Li  Li15  1  0.53914328  0.07401838  0.53953025  1
  Li  Li16  1  0.92598261  0.46085585  0.03953176  1
  Li  Li17  1  0.92598028  0.46512936  0.53953519  1
  Br  Br18  1  0.75927378  0.87788608  0.13358096  1
  Br  Br19  1  0.75927268  0.88139074  0.63357736  1
  Br  Br20  1  0.45541010  0.90727581  0.29981014  1
  Br  Br21  1  0.45186953  0.54458769  0.29982181  1
  Br  Br22  1  0.78876476  0.21473146  0.46680111  1
  Br  Br23  1  0.12211660  0.88138651  0.13359403  1
  Br  Br24  1  0.45186337  0.90727585  0.79980474  1
  Br  Br25  1  0.45541286  0.54813119  0.79982164  1
  Br  Br26  1  0.11860880  0.24072616  0.13357982  1
  Br  Br27  1  0.11861386  0.87788364  0.63359542  1
  Br  Br28  1  0.09272489  0.54458924  0.79981167  1
  Br  Br29  1  0.09272497  0.54813696  0.29980646  1
  Br  Br30  1  0.78526334  0.57402857  0.46679289  1
  Br  Br31  1  0.78526826  0.21123432  -0.03319829  1
  Br  Br32  1  0.12211242  0.24072547  0.63358301  1
  Br  Br33  1  0.78876361  0.57402827  -0.03320260  1
  Br  Br34  1  0.42597135  0.21123611  0.46679963  1
  Br  Br35  1  0.42597168  0.21473772  -0.03320592  1
