# generated using pymatgen
data_LiBr
_symmetry_space_group_name_H-M   'P 1'
_cell_length_a   8.27035559
_cell_length_b   8.27033473
_cell_length_c   6.69678518
_cell_angle_alpha   89.99993156
_cell_angle_beta   90.00022810
_cell_angle_gamma   89.99993578
_symmetry_Int_Tables_number   1
_chemical_formula_structural   LiBr
_chemical_formula_sum   'Li8 Br8'
_cell_volume   458.05079157
_cell_formula_units_Z   8
loop_
 _symmetry_equiv_pos_site_id
 _symmetry_equiv_pos_as_xyz
  1  'x, y, z'
loop_
 _atom_site_type_symbol
 _atom_site_label
 _atom_site_symmetry_multiplicity
 _atom_site_fract_x
 _atom_site_fract_y
 _atom_site_fract_z
 _atom_site_occupancy
  Li  Li0  1  0.35753101  0.36366030  0.96882311  1
  Li  Li1  1  0.13633356  0.14247542  0.46881742  1
  Li  Li2  1  0.14247286  0.86366574  0.96881509  1
  Li  Li3  1  0.86367065  0.85751984  0.46881498  1
  Li  Li4  1  0.85752733  0.13633893  0.96882585  1
  Li  Li5  1  0.64247570  0.63633590  0.96882733  1
  Li  Li6  1  0.36366405  0.64247512  0.46882290  1
  Li  Li7  1  0.63633204  0.35752576  0.46882675  1
  Br  Br8  1  0.84670889  0.83915963  0.08958737  1
  Br  Br9  1  0.66084587  0.65329059  0.58958322  1
  Br  Br10  1  0.65329115  0.33915632  0.08958773  1
  Br  Br11  1  0.33915155  0.34671096  0.58958706  1
  Br  Br12  1  0.34670839  0.66084619  0.08958913  1
  Br  Br13  1  0.15328937  0.16084347  0.08958986  1
  Br  Br14  1  0.83915431  0.15328430  0.58959191  1
  Br  Br15  1  0.16084329  0.84671153  0.58959221  1
