# generated using pymatgen
data_LiI
_symmetry_space_group_name_H-M   'P 1'
_cell_length_a   8.56156433
_cell_length_b   8.56156613
_cell_length_c   15.74411274
_cell_angle_alpha   89.99991053
_cell_angle_beta   89.99998942
_cell_angle_gamma   89.99995039
_symmetry_Int_Tables_number   1
_chemical_formula_structural   LiI
_chemical_formula_sum   'Li16 I16'
_cell_volume   1154.04974737
_cell_formula_units_Z   16
loop_
 _symmetry_equiv_pos_site_id
 _symmetry_equiv_pos_as_xyz
  1  'x, y, z'
loop_
 _atom_site_type_symbol
 _atom_site_label
 _atom_site_symmetry_multiplicity
 _atom_site_fract_x
 _atom_site_fract_y
 _atom_site_fract_z
 _atom_site_occupancy
  Li  Li0  1  0.86519964  0.83524953  0.69830963  1
  Li  Li1  1  0.66475093  0.36520040  0.80169105  1
  Li  Li2  1  0.86520016  0.33524912  0.55169127  1
  Li  Li3  1  0.13479924  0.16475145  0.69830898  1
  Li  Li4  1  0.33524935  0.63479977  0.80169094  1
  Li  Li5  1  0.16475117  0.36520079  0.94830890  1
  Li  Li6  1  0.83524865  0.63479930  0.94830913  1
  Li  Li7  1  0.66475088  0.86520041  0.44830885  1
  Li  Li8  1  0.33524820  0.13479901  0.44830889  1
  Li  Li9  1  0.63479995  0.66475133  0.19830966  1
  Li  Li10  1  0.83524970  0.13479989  0.30169111  1
  Li  Li11  1  0.36520043  0.33524849  0.19830863  1
  Li  Li12  1  0.16475126  0.86520052  0.30169118  1
  Li  Li13  1  0.36519978  0.83524935  0.05169025  1
  Li  Li14  1  0.63480054  0.16475048  0.05169126  1
  Li  Li15  1  0.13480007  0.66475028  0.55169021  1
  I  I16  1  0.69069650  0.34317905  0.19505080  1
  I  I17  1  0.15682092  0.19069701  0.30494934  1
  I  I18  1  0.69069681  0.84317891  0.05494910  1
  I  I19  1  0.30930327  0.65682094  0.19505077  1
  I  I20  1  0.84317937  0.80930328  0.30494919  1
  I  I21  1  0.65682089  0.19069638  0.44505092  1
  I  I22  1  0.34317935  0.80930274  0.44505050  1
  I  I23  1  0.15682085  0.69069684  0.94505060  1
  I  I24  1  0.84317944  0.30930312  0.94505084  1
  I  I25  1  0.80930322  0.15682110  0.69505103  1
  I  I26  1  0.34317926  0.30930329  0.80494920  1
  I  I27  1  0.19069628  0.84317915  0.69505052  1
  I  I28  1  0.65682067  0.69069694  0.80494942  1
  I  I29  1  0.19069645  0.34317906  0.55494920  1
  I  I30  1  0.80930305  0.65682114  0.55494935  1
  I  I31  1  0.30930373  0.15682093  0.05494927  1
