# generated using pymatgen
data_LiBr
_symmetry_space_group_name_H-M   'P 1'
_cell_length_a   11.54230102
_cell_length_b   11.54211661
_cell_length_c   7.92647808
_cell_angle_alpha   90.00074615
_cell_angle_beta   89.99921425
_cell_angle_gamma   119.99627260
_symmetry_Int_Tables_number   1
_chemical_formula_structural   LiBr
_chemical_formula_sum   'Li18 Br18'
_cell_volume   914.54495761
_cell_formula_units_Z   18
loop_
 _symmetry_equiv_pos_site_id
 _symmetry_equiv_pos_as_xyz
  1  'x, y, z'
loop_
 _atom_site_type_symbol
 _atom_site_label
 _atom_site_symmetry_multiplicity
 _atom_site_fract_x
 _atom_site_fract_y
 _atom_site_fract_z
 _atom_site_occupancy
  Li  Li0  1  0.07377054  0.53701234  0.46393941  1
  Li  Li1  1  0.07372380  0.53671240  0.96399942  1
  Li  Li2  1  0.79633577  0.59290635  0.63058767  1
  Li  Li3  1  0.79659780  0.20371345  0.63049667  1
  Li  Li4  1  0.12962590  0.87008854  0.79717642  1
  Li  Li5  1  0.46295592  0.53674711  0.46382566  1
  Li  Li6  1  0.79661292  0.59294670  0.13064578  1
  Li  Li7  1  0.79628529  0.20344166  0.13048288  1
  Li  Li8  1  0.46327601  0.92625703  0.46400041  1
  Li  Li9  1  0.46323045  0.53703514  0.96383490  1
  Li  Li10  1  0.40709501  0.20368288  0.13061086  1
  Li  Li11  1  0.40708431  0.20340102  0.63065117  1
  Li  Li12  1  0.12993478  0.25958398  0.79732741  1
  Li  Li13  1  0.12991086  0.87037686  0.29716993  1
  Li  Li14  1  0.46298324  0.92622779  0.96392172  1
  Li  Li15  1  0.12963645  0.25956687  0.29727747  1
  Li  Li16  1  0.74042167  0.87033562  0.79727946  1
  Li  Li17  1  0.74039614  0.87006374  0.29733263  1
  Br  Br18  1  0.24134151  0.12079648  0.37014649  1
  Br  Br19  1  0.24139613  0.12054172  0.87008185  1
  Br  Br20  1  0.21254673  0.42530818  0.53683449  1
  Br  Br21  1  0.21279835  0.78749536  0.53680214  1
  Br  Br22  1  0.54587344  0.45387872  0.70348811  1
  Br  Br23  1  0.87917541  0.12055540  0.37013288  1
  Br  Br24  1  0.21276754  0.42526737  0.03676966  1
  Br  Br25  1  0.21250489  0.78719490  0.03682199  1
  Br  Br26  1  0.87944802  0.75863277  0.37010575  1
  Br  Br27  1  0.87945690  0.12079970  0.87015796  1
  Br  Br28  1  0.57466686  0.78743855  0.03683322  1
  Br  Br29  1  0.57470692  0.78720689  0.53679170  1
  Br  Br30  1  0.54615082  0.09195668  0.70344429  1
  Br  Br31  1  0.54612301  0.45416622  0.20347858  1
  Br  Br32  1  0.87920979  0.75864088  0.87015266  1
  Br  Br33  1  0.54587046  0.09199365  0.20348391  1
  Br  Br34  1  0.90804140  0.45412931  0.70346872  1
  Br  Br35  1  0.90804501  0.45389770  0.20343833  1
