# generated using pymatgen
data_LiBr
_symmetry_space_group_name_H-M   'P 1'
_cell_length_a   3.89246613
_cell_length_b   3.89615681
_cell_length_c   11.01087221
_cell_angle_alpha   90.00110526
_cell_angle_beta   90.00147682
_cell_angle_gamma   90.00174557
_symmetry_Int_Tables_number   1
_chemical_formula_structural   LiBr
_chemical_formula_sum   'Li4 Br4'
_cell_volume   166.98712709
_cell_formula_units_Z   4
loop_
 _symmetry_equiv_pos_site_id
 _symmetry_equiv_pos_as_xyz
  1  'x, y, z'
loop_
 _atom_site_type_symbol
 _atom_site_label
 _atom_site_symmetry_multiplicity
 _atom_site_fract_x
 _atom_site_fract_y
 _atom_site_fract_z
 _atom_site_occupancy
  Li  Li0  1  0.00187741  0.50143798  0.15168427  1
  Li  Li1  1  0.50141106  -0.00196525  0.40146625  1
  Li  Li2  1  -0.00188376  0.49855999  0.65168485  1
  Li  Li3  1  0.49858311  0.00196335  0.90146842  1
  Br  Br4  1  0.00066426  0.49885101  0.40163924  1
  Br  Br5  1  0.49907486  -0.00091585  0.65166827  1
  Br  Br6  1  -0.00065776  0.50114972  0.90164081  1
  Br  Br7  1  0.50093083  0.00091905  0.15166769  1
