# generated using pymatgen
data_KI
_symmetry_space_group_name_H-M   'P 1'
_cell_length_a   7.12232571
_cell_length_b   6.02203669
_cell_length_c   10.63670685
_cell_angle_alpha   89.99999829
_cell_angle_beta   90.01221542
_cell_angle_gamma   90.00000294
_symmetry_Int_Tables_number   1
_chemical_formula_structural   KI
_chemical_formula_sum   'K4 I4'
_cell_volume   456.21799102
_cell_formula_units_Z   4
loop_
 _symmetry_equiv_pos_site_id
 _symmetry_equiv_pos_as_xyz
  1  'x, y, z'
loop_
 _atom_site_type_symbol
 _atom_site_label
 _atom_site_symmetry_multiplicity
 _atom_site_fract_x
 _atom_site_fract_y
 _atom_site_fract_z
 _atom_site_occupancy
  K  K0  1  0.75138226  0.96696825  0.66521663  1
  K  K1  1  0.24861766  0.46696817  0.83478334  1
  K  K2  1  0.24861774  0.03303175  0.33478337  1
  K  K3  1  0.75138234  0.53303184  0.16521666  1
  I  I4  1  0.25098129  0.53300744  0.16345665  1
  I  I5  1  0.74901876  0.03300737  0.33654350  1
  I  I6  1  0.74901871  0.46699256  0.83654335  1
  I  I7  1  0.25098124  -0.03300737  0.66345650  1
