# generated using pymatgen
data_LiI
_symmetry_space_group_name_H-M   'P 1'
_cell_length_a   4.84624473
_cell_length_b   7.30341527
_cell_length_c   8.89331262
_cell_angle_alpha   89.99996253
_cell_angle_beta   120.90183700
_cell_angle_gamma   89.99952665
_symmetry_Int_Tables_number   1
_chemical_formula_structural   LiI
_chemical_formula_sum   'Li4 I4'
_cell_volume   270.08887868
_cell_formula_units_Z   4
loop_
 _symmetry_equiv_pos_site_id
 _symmetry_equiv_pos_as_xyz
  1  'x, y, z'
loop_
 _atom_site_type_symbol
 _atom_site_label
 _atom_site_symmetry_multiplicity
 _atom_site_fract_x
 _atom_site_fract_y
 _atom_site_fract_z
 _atom_site_occupancy
  Li  Li0  1  0.34240360  0.85387225  0.59421755  1
  Li  Li1  1  0.65760267  0.35387357  0.90578177  1
  Li  Li2  1  0.65759637  0.14612771  0.40578245  1
  Li  Li3  1  0.34239732  0.64612648  0.09421821  1
  I  I4  1  0.30812193  0.23661655  0.56307142  1
  I  I5  1  0.69187156  0.73661646  0.93692817  1
  I  I6  1  0.69187813  0.76338340  0.43692857  1
  I  I7  1  0.30812842  0.26338358  0.06307186  1
