# generated using pymatgen
data_LiBr
_symmetry_space_group_name_H-M   'P 1'
_cell_length_a   6.45435501
_cell_length_b   3.86232160
_cell_length_c   6.68068729
_cell_angle_alpha   90.00011810
_cell_angle_beta   89.99998452
_cell_angle_gamma   90.00000209
_symmetry_Int_Tables_number   1
_chemical_formula_structural   LiBr
_chemical_formula_sum   'Li4 Br4'
_cell_volume   166.54148239
_cell_formula_units_Z   4
loop_
 _symmetry_equiv_pos_site_id
 _symmetry_equiv_pos_as_xyz
  1  'x, y, z'
loop_
 _atom_site_type_symbol
 _atom_site_label
 _atom_site_symmetry_multiplicity
 _atom_site_fract_x
 _atom_site_fract_y
 _atom_site_fract_z
 _atom_site_occupancy
  Li  Li0  1  0.49999882  0.25123219  0.00017343  1
  Li  Li1  1  0.50000116  0.75123224  0.49982722  1
  Li  Li2  1  0.00000120  0.74876776  0.50017284  1
  Li  Li3  1  -0.00000122  0.24876779  -0.00017349  1
  Br  Br4  1  0.75040645  0.25030238  0.66688580  1
  Br  Br5  1  0.24959357  0.75030260  0.83311416  1
  Br  Br6  1  0.74959355  0.74969739  0.16688580  1
  Br  Br7  1  0.25040647  0.24969764  0.33311423  1
