# generated using pymatgen
data_LiBr
_symmetry_space_group_name_H-M   'P 1'
_cell_length_a   6.83175598
_cell_length_b   4.38443058
_cell_length_c   6.80236894
_cell_angle_alpha   89.99999435
_cell_angle_beta   79.77554446
_cell_angle_gamma   90.00000447
_symmetry_Int_Tables_number   1
_chemical_formula_structural   LiBr
_chemical_formula_sum   'Li4 Br4'
_cell_volume   200.51818019
_cell_formula_units_Z   4
loop_
 _symmetry_equiv_pos_site_id
 _symmetry_equiv_pos_as_xyz
  1  'x, y, z'
loop_
 _atom_site_type_symbol
 _atom_site_label
 _atom_site_symmetry_multiplicity
 _atom_site_fract_x
 _atom_site_fract_y
 _atom_site_fract_z
 _atom_site_occupancy
  Li  Li0  1  0.27743497  0.25379657  0.18860684  1
  Li  Li1  1  0.77743231  0.75379662  0.18860489  1
  Li  Li2  1  0.27743276  0.74620377  0.68860671  1
  Li  Li3  1  0.77743080  0.24620314  0.68860530  1
  Br  Br4  1  0.65217893  0.74662982  0.56414730  1
  Br  Br5  1  0.15217872  0.24663289  0.56414706  1
  Br  Br6  1  0.65218079  0.25337042  0.06414749  1
  Br  Br7  1  0.15218055  0.75336677  0.06414718  1
