# generated using pymatgen
data_LiI
_symmetry_space_group_name_H-M   'P 1'
_cell_length_a   4.38269660
_cell_length_b   4.38304587
_cell_length_c   13.75132153
_cell_angle_alpha   89.99959148
_cell_angle_beta   89.99997257
_cell_angle_gamma   89.95417821
_symmetry_Int_Tables_number   1
_chemical_formula_structural   LiI
_chemical_formula_sum   'Li4 I4'
_cell_volume   264.15675497
_cell_formula_units_Z   4
loop_
 _symmetry_equiv_pos_site_id
 _symmetry_equiv_pos_as_xyz
  1  'x, y, z'
loop_
 _atom_site_type_symbol
 _atom_site_label
 _atom_site_symmetry_multiplicity
 _atom_site_fract_x
 _atom_site_fract_y
 _atom_site_fract_z
 _atom_site_occupancy
  Li  Li0  1  0.99293958  0.00590658  0.37644754  1
  Li  Li1  1  0.00648575  0.00689818  0.62646856  1
  Li  Li2  1  0.00706176  0.99410118  0.87644795  1
  Li  Li3  1  0.99351262  0.99309489  0.12646937  1
  I  I4  1  0.00357815  0.49453864  0.00160388  1
  I  I5  1  0.49423663  -0.00323964  0.25162765  1
  I  I6  1  -0.00357693  0.50546114  0.50160352  1
  I  I7  1  0.50576244  0.00323902  0.75162705  1
