# generated using pymatgen
data_NaI
_symmetry_space_group_name_H-M   'P 1'
_cell_length_a   9.67027430
_cell_length_b   8.05159864
_cell_length_c   8.03343090
_cell_angle_alpha   90.00322689
_cell_angle_beta   89.99978013
_cell_angle_gamma   89.99997978
_symmetry_Int_Tables_number   1
_chemical_formula_structural   NaI
_chemical_formula_sum   'Na8 I8'
_cell_volume   625.49230760
_cell_formula_units_Z   8
loop_
 _symmetry_equiv_pos_site_id
 _symmetry_equiv_pos_as_xyz
  1  'x, y, z'
loop_
 _atom_site_type_symbol
 _atom_site_label
 _atom_site_symmetry_multiplicity
 _atom_site_fract_x
 _atom_site_fract_y
 _atom_site_fract_z
 _atom_site_occupancy
  Na  Na0  1  0.25041517  0.49979804  0.57126282  1
  Na  Na1  1  0.75037236  0.00020250  0.57126196  1
  Na  Na2  1  0.74958293  0.49979883  0.07126658  1
  Na  Na3  1  0.74961976  0.50020174  0.57126595  1
  Na  Na4  1  0.25037850  0.50020250  0.07126217  1
  Na  Na5  1  0.24957703  -0.00020114  0.57126679  1
  Na  Na6  1  0.24962974  0.00020169  0.07126525  1
  Na  Na7  1  0.75042515  -0.00020195  0.07126354  1
  I  I8  1  0.88606900  0.75004860  0.32091849  1
  I  I9  1  0.38606856  0.74994931  0.32091959  1
  I  I10  1  0.11393084  0.75005007  0.82091698  1
  I  I11  1  0.11393138  0.24994904  0.32091181  1
  I  I12  1  0.88606846  0.24995057  0.82091334  1
  I  I13  1  0.61393075  0.25004883  0.32091077  1
  I  I14  1  0.61393131  0.74995092  0.82091841  1
  I  I15  1  0.38606907  0.25005045  0.82091195  1
