# generated using pymatgen
data_LiI
_symmetry_space_group_name_H-M   'P 1'
_cell_length_a   14.70835342
_cell_length_b   14.70832650
_cell_length_c   9.18006026
_cell_angle_alpha   90.01010487
_cell_angle_beta   89.98990616
_cell_angle_gamma   120.01855343
_symmetry_Int_Tables_number   1
_chemical_formula_structural   LiI
_chemical_formula_sum   'Li18 I18'
_cell_volume   1719.57945827
_cell_formula_units_Z   18
loop_
 _symmetry_equiv_pos_site_id
 _symmetry_equiv_pos_as_xyz
  1  'x, y, z'
loop_
 _atom_site_type_symbol
 _atom_site_label
 _atom_site_symmetry_multiplicity
 _atom_site_fract_x
 _atom_site_fract_y
 _atom_site_fract_z
 _atom_site_occupancy
  Li  Li0  1  0.27508424  0.05313136  0.44631488  1
  Li  Li1  1  0.27515353  0.22194884  0.94630530  1
  Li  Li2  1  0.28020130  0.39157955  0.61297847  1
  Li  Li3  1  0.11126962  0.71980238  0.61294314  1
  Li  Li4  1  0.61352933  0.55539546  0.77960770  1
  Li  Li5  1  0.94686279  0.22205878  0.44627611  1
  Li  Li6  1  0.11138057  0.39150961  0.11297099  1
  Li  Li7  1  0.28019821  0.88873114  0.11294188  1
  Li  Li8  1  0.77804989  0.72484588  0.44630524  1
  Li  Li9  1  0.77794337  0.05313772  0.94627566  1
  Li  Li10  1  0.60841905  0.71979734  0.11297953  1
  Li  Li11  1  0.60849012  0.88861916  0.61297095  1
  Li  Li12  1  0.44471656  0.05817647  0.77963634  1
  Li  Li13  1  0.44460345  0.38646998  0.27960716  1
  Li  Li14  1  0.94686588  0.72491510  0.94631350  1
  Li  Li15  1  0.61353525  0.05824498  0.27964333  1
  Li  Li16  1  0.94175304  0.38646443  0.77964477  1
  Li  Li17  1  0.94182397  0.55528566  0.27963641  1
  I  I18  1  0.14810773  0.78033742  0.89323022  1
  I  I19  1  0.14815593  0.36787102  0.39326726  1
  I  I20  1  0.55299793  0.51855616  0.05989471  1
  I  I21  1  -0.03432632  0.44702744  0.05990943  1
  I  I22  1  0.88630621  0.70099378  0.22657922  1
  I  I23  1  0.21963788  0.36765780  0.89324386  1
  I  I24  1  -0.03453985  0.51850748  0.55993164  1
  I  I25  1  0.55297422  0.03432752  0.55990885  1
  I  I26  1  0.63212990  0.85184406  0.89326736  1
  I  I27  1  0.63234227  0.78036261  0.39324369  1
  I  I28  1  0.48144289  0.44700243  0.55989422  1
  I  I29  1  0.48149288  0.03454043  0.05993169  1
  I  I30  1  0.29879282  0.18517469  0.22660081  1
  I  I31  1  0.29900916  0.11369459  0.72657923  1
  I  I32  1  0.21966383  0.85189010  0.39322919  1
  I  I33  1  0.88633102  0.18522315  0.72656169  1
  I  I34  1  0.81477749  0.11366972  0.22656193  1
  I  I35  1  0.81482384  0.70120579  0.72659960  1
