# generated using pymatgen
data_LiBr
_symmetry_space_group_name_H-M   'P 1'
_cell_length_a   9.88434937
_cell_length_b   11.28143551
_cell_length_c   8.71385362
_cell_angle_alpha   90.00010116
_cell_angle_beta   89.99997478
_cell_angle_gamma   89.99997643
_symmetry_Int_Tables_number   1
_chemical_formula_structural   LiBr
_chemical_formula_sum   'Li16 Br16'
_cell_volume   971.67876686
_cell_formula_units_Z   16
loop_
 _symmetry_equiv_pos_site_id
 _symmetry_equiv_pos_as_xyz
  1  'x, y, z'
loop_
 _atom_site_type_symbol
 _atom_site_label
 _atom_site_symmetry_multiplicity
 _atom_site_fract_x
 _atom_site_fract_y
 _atom_site_fract_z
 _atom_site_occupancy
  Li  Li0  1  0.75010340  0.10499321  0.36621695  1
  Li  Li1  1  0.24989660  0.89500532  0.36621524  1
  Li  Li2  1  0.49989788  0.35499440  0.61621779  1
  Li  Li3  1  0.74989668  0.89500579  0.86621645  1
  Li  Li4  1  -0.00010263  0.35499376  0.11621718  1
  Li  Li5  1  0.00010307  0.14500614  0.61621616  1
  Li  Li6  1  0.25010249  0.10499257  0.86621752  1
  Li  Li7  1  -0.00010332  0.85499414  0.61621616  1
  Li  Li8  1  0.00010305  0.64500619  0.11621559  1
  Li  Li9  1  0.25010308  0.60499349  0.36621638  1
  Li  Li10  1  0.74989693  0.39500685  0.36621612  1
  Li  Li11  1  0.49989827  0.85499448  0.11621835  1
  Li  Li12  1  0.50010305  0.14500725  0.11621706  1
  Li  Li13  1  0.50010338  0.64500594  0.61621685  1
  Li  Li14  1  0.75010221  0.60499412  0.86621856  1
  Li  Li15  1  0.24989684  0.39500580  0.86621540  1
  Br  Br16  1  0.80055494  0.50004292  0.11623072  1
  Br  Br17  1  0.19944506  0.49995781  0.11622899  1
  Br  Br18  1  0.44944474  0.75004177  0.36622981  1
  Br  Br19  1  0.69944569  0.49995805  0.61623053  1
  Br  Br20  1  0.94944465  0.75004235  0.86622955  1
  Br  Br21  1  0.05055457  0.74995692  0.36622973  1
  Br  Br22  1  0.30055527  0.50004263  0.61622991  1
  Br  Br23  1  0.94944495  0.25004265  0.36622991  1
  Br  Br24  1  0.05055434  0.24995682  0.86623063  1
  Br  Br25  1  0.30055536  0.00004281  0.11623067  1
  Br  Br26  1  0.69944551  -0.00004152  0.11622960  1
  Br  Br27  1  0.44944465  0.25004183  0.86623004  1
  Br  Br28  1  0.55055432  0.74995786  0.86623078  1
  Br  Br29  1  0.55055549  0.24995782  0.36623059  1
  Br  Br30  1  0.80055443  0.00004249  0.61622991  1
  Br  Br31  1  0.19944504  -0.00004267  0.61622950  1
