# generated using pymatgen
data_LiBr
_symmetry_space_group_name_H-M   'P 1'
_cell_length_a   15.52927801
_cell_length_b   15.52926904
_cell_length_c   11.18937620
_cell_angle_alpha   89.99221273
_cell_angle_beta   90.00776777
_cell_angle_gamma   120.01714831
_symmetry_Int_Tables_number   1
_chemical_formula_structural   LiBr
_chemical_formula_sum   'Li36 Br36'
_cell_volume   2336.48883293
_cell_formula_units_Z   36
loop_
 _symmetry_equiv_pos_site_id
 _symmetry_equiv_pos_as_xyz
  1  'x, y, z'
loop_
 _atom_site_type_symbol
 _atom_site_label
 _atom_site_symmetry_multiplicity
 _atom_site_fract_x
 _atom_site_fract_y
 _atom_site_fract_z
 _atom_site_occupancy
  Li  Li0  1  0.65405063  0.76132259  0.22262818  1
  Li  Li1  1  0.22608570  0.32074420  0.44420531  1
  Li  Li2  1  0.77389514  0.09464170  0.05580881  1
  Li  Li3  1  0.77391442  0.67925572  0.55579453  1
  Li  Li4  1  0.55936435  0.98738418  0.11079262  1
  Li  Li5  1  0.44061650  0.42800509  0.38921742  1
  Li  Li6  1  0.57199512  0.55938347  0.88921760  1
  Li  Li7  1  0.09464167  0.77389522  0.44419124  1
  Li  Li8  1  0.42800478  0.44061664  0.11078233  1
  Li  Li9  1  0.23869076  0.89274038  0.22263849  1
  Li  Li10  1  0.44063578  0.01261584  0.88920740  1
  Li  Li11  1  0.09464988  0.32074337  0.94420441  1
  Li  Li12  1  0.90534997  0.67925653  0.05579543  1
  Li  Li13  1  0.65404769  0.89271998  0.72263098  1
  Li  Li14  1  0.55938343  0.57199488  0.61078253  1
  Li  Li15  1  0.90535835  0.22610485  0.55580880  1
  Li  Li16  1  0.76130907  0.10725952  0.77736147  1
  Li  Li17  1  0.22610487  0.90535818  0.94419136  1
  Li  Li18  1  0.01261878  0.57199072  0.11079090  1
  Li  Li19  1  0.98738432  0.55936448  0.38920741  1
  Li  Li20  1  0.10728014  0.34595254  0.22263086  1
  Li  Li21  1  0.98738094  0.42800925  0.88920895  1
  Li  Li22  1  0.01261576  0.44063570  0.61079254  1
  Li  Li23  1  0.89271997  0.65404765  0.77736902  1
  Li  Li24  1  0.34594937  0.23867739  0.77737189  1
  Li  Li25  1  0.34595253  0.10727991  0.27736893  1
  Li  Li26  1  0.67925614  0.90534957  0.44420468  1
  Li  Li27  1  0.32074421  0.22608563  0.05579457  1
  Li  Li28  1  0.32074407  0.09465052  0.55579527  1
  Li  Li29  1  0.67925549  0.77391430  0.94420558  1
  Li  Li30  1  0.10725955  0.76130935  0.72263851  1
  Li  Li31  1  0.57199130  0.01261946  0.38920927  1
  Li  Li32  1  0.42800877  0.98738052  0.61079092  1
  Li  Li33  1  0.89274058  0.23869076  0.27736157  1
  Li  Li34  1  0.23867772  0.34594976  0.72262804  1
  Li  Li35  1  0.76132230  0.65405020  0.27737184  1
  Br  Br36  1  0.04141851  0.80053525  0.91198840  1
  Br  Br37  1  0.57422829  0.70804691  0.75469532  1
  Br  Br38  1  0.42578661  0.13385921  0.74527385  1
  Br  Br39  1  0.42577151  0.29195297  0.24530478  1
  Br  Br40  1  0.90757256  0.37471973  0.42130409  1
  Br  Br41  1  0.09243783  0.46718459  0.07866900  1
  Br  Br42  1  0.53281548  0.90756211  0.57866926  1
  Br  Br43  1  0.13385913  0.42578657  0.75472608  1
  Br  Br44  1  0.46718473  0.09243794  0.42133091  1
  Br  Br45  1  0.19945508  0.24089749  0.91201388  1
  Br  Br46  1  0.09242742  0.62528043  0.57869592  1
  Br  Br47  1  0.13385199  0.70805006  0.25475002  1
  Br  Br48  1  0.86614786  0.29194991  0.74524990  1
  Br  Br49  1  0.04141603  0.24091425  0.41204526  1
  Br  Br50  1  0.90756193  0.53281538  0.92133085  1
  Br  Br51  1  0.86614076  0.57421338  0.24527381  1
  Br  Br52  1  0.80054485  0.75910248  0.08798601  1
  Br  Br53  1  0.57421339  0.86614073  0.25472626  1
  Br  Br54  1  0.62527800  0.53282329  0.42135684  1
  Br  Br55  1  0.37471979  0.90757270  0.07869607  1
  Br  Br56  1  0.75908597  0.95858408  0.91204525  1
  Br  Br57  1  0.37472202  0.46717665  0.57864307  1
  Br  Br58  1  0.62528025  0.09242730  0.92130406  1
  Br  Br59  1  0.24091407  0.04141589  0.08795476  1
  Br  Br60  1  0.95858160  0.19946466  0.08801175  1
  Br  Br61  1  0.95858407  0.75908600  0.58795478  1
  Br  Br62  1  0.29194985  0.86614756  0.75475034  1
  Br  Br63  1  0.70804700  0.57422829  0.74530475  1
  Br  Br64  1  0.70805032  0.13385233  0.24524978  1
  Br  Br65  1  0.29195296  0.42577179  0.25469524  1
  Br  Br66  1  0.75910262  0.80054491  0.41201397  1
  Br  Br67  1  0.53282359  0.62527812  0.07864335  1
  Br  Br68  1  0.46717632  0.37472191  0.92135668  1
  Br  Br69  1  0.24089740  0.19945503  0.58798603  1
  Br  Br70  1  0.19946518  0.95858166  0.41198852  1
  Br  Br71  1  0.80053501  0.04141839  0.58801150  1
