# generated using pymatgen
data_LiBr
_symmetry_space_group_name_H-M   'P 1'
_cell_length_a   4.41265517
_cell_length_b   6.94963672
_cell_length_c   7.09082464
_cell_angle_alpha   89.99938658
_cell_angle_beta   89.99979378
_cell_angle_gamma   89.99905423
_symmetry_Int_Tables_number   1
_chemical_formula_structural   LiBr
_chemical_formula_sum   'Li4 Br4'
_cell_volume   217.44971323
_cell_formula_units_Z   4
loop_
 _symmetry_equiv_pos_site_id
 _symmetry_equiv_pos_as_xyz
  1  'x, y, z'
loop_
 _atom_site_type_symbol
 _atom_site_label
 _atom_site_symmetry_multiplicity
 _atom_site_fract_x
 _atom_site_fract_y
 _atom_site_fract_z
 _atom_site_occupancy
  Li  Li0  1  0.74931068  0.14978930  0.35375094  1
  Li  Li1  1  0.25068605  0.64979411  0.14624655  1
  Li  Li2  1  0.75068604  0.85020866  0.85375401  1
  Li  Li3  1  0.24931706  0.35020749  0.64624803  1
  Br  Br4  1  0.24939094  0.31742529  0.28333681  1
  Br  Br5  1  0.75062065  0.81742234  0.21666339  1
  Br  Br6  1  0.25060787  0.68257663  0.78333819  1
  Br  Br7  1  0.74938070  0.18257618  0.71666208  1
