# generated using pymatgen
data_LiBr
_symmetry_space_group_name_H-M   'P 1'
_cell_length_a   7.26704263
_cell_length_b   4.18103932
_cell_length_c   6.74216949
_cell_angle_alpha   90.00003860
_cell_angle_beta   89.99987587
_cell_angle_gamma   89.99998495
_symmetry_Int_Tables_number   1
_chemical_formula_structural   LiBr
_chemical_formula_sum   'Li4 Br4'
_cell_volume   204.85266855
_cell_formula_units_Z   4
loop_
 _symmetry_equiv_pos_site_id
 _symmetry_equiv_pos_as_xyz
  1  'x, y, z'
loop_
 _atom_site_type_symbol
 _atom_site_label
 _atom_site_symmetry_multiplicity
 _atom_site_fract_x
 _atom_site_fract_y
 _atom_site_fract_z
 _atom_site_occupancy
  Li  Li0  1  0.08191201  0.25150921  0.03146261  1
  Li  Li1  1  0.58190901  0.74848825  0.03146234  1
  Li  Li2  1  0.91809144  0.74848739  0.53146173  1
  Li  Li3  1  0.41808854  0.25150957  0.53146207  1
  Br  Br4  1  -0.08515791  0.75154984  0.91085390  1
  Br  Br5  1  0.41484292  0.24845332  0.91085235  1
  Br  Br6  1  0.08515672  0.24845211  0.41085229  1
  Br  Br7  1  0.58515727  0.75155031  0.41085431  1
