# generated using pymatgen
data_LiBr
_symmetry_space_group_name_H-M   'P 1'
_cell_length_a   7.57308798
_cell_length_b   7.57308750
_cell_length_c   12.34343063
_cell_angle_alpha   89.99984712
_cell_angle_beta   89.99978110
_cell_angle_gamma   120.00298115
_symmetry_Int_Tables_number   1
_chemical_formula_structural   LiBr
_chemical_formula_sum   'Li12 Br12'
_cell_volume   613.05500509
_cell_formula_units_Z   12
loop_
 _symmetry_equiv_pos_site_id
 _symmetry_equiv_pos_as_xyz
  1  'x, y, z'
loop_
 _atom_site_type_symbol
 _atom_site_label
 _atom_site_symmetry_multiplicity
 _atom_site_fract_x
 _atom_site_fract_y
 _atom_site_fract_z
 _atom_site_occupancy
  Li  Li0  1  0.00000562  0.33341005  0.09506897  1
  Li  Li1  1  0.66659534  0.66659959  0.09507035  1
  Li  Li2  1  0.66659249  -0.00000149  0.90492643  1
  Li  Li3  1  -0.00000732  0.66659005  0.90493144  1
  Li  Li4  1  0.66659964  0.66659810  0.59507089  1
  Li  Li5  1  0.33340837  0.00000279  0.59506882  1
  Li  Li6  1  0.00000518  0.33340742  0.59507352  1
  Li  Li7  1  0.33340162  0.33339934  0.90492837  1
  Li  Li8  1  -0.00000265  0.66659314  0.40492569  1
  Li  Li9  1  0.33340230  0.33340200  0.40493011  1
  Li  Li10  1  0.66659425  -0.00000273  0.40493177  1
  Li  Li11  1  0.33340497  0.00000147  0.09507364  1
  Br  Br12  1  0.66663670  0.00023066  0.62109479  1
  Br  Br13  1  -0.00023300  0.66640322  0.62109169  1
  Br  Br14  1  0.66640867  0.66664266  0.37890710  1
  Br  Br15  1  0.33336622  -0.00022982  0.37890547  1
  Br  Br16  1  0.66640407  -0.00023068  0.12109184  1
  Br  Br17  1  0.00022650  0.66663451  0.12109457  1
  Br  Br18  1  0.33335750  0.33359113  0.12109290  1
  Br  Br19  1  0.00023579  0.33359690  0.37890815  1
  Br  Br20  1  0.66663992  0.66640907  0.87890633  1
  Br  Br21  1  0.33359386  0.00023030  0.87890808  1
  Br  Br22  1  -0.00022900  0.33336562  0.87890534  1
  Br  Br23  1  0.33359295  0.33335672  0.62109374  1
