# generated using pymatgen
data_LiBr
_symmetry_space_group_name_H-M   'P 1'
_cell_length_a   10.99886250
_cell_length_b   5.50894145
_cell_length_c   5.51315146
_cell_angle_alpha   89.99995094
_cell_angle_beta   90.00000542
_cell_angle_gamma   89.99998704
_symmetry_Int_Tables_number   1
_chemical_formula_structural   LiBr
_chemical_formula_sum   'Li8 Br8'
_cell_volume   334.05336661
_cell_formula_units_Z   8
loop_
 _symmetry_equiv_pos_site_id
 _symmetry_equiv_pos_as_xyz
  1  'x, y, z'
loop_
 _atom_site_type_symbol
 _atom_site_label
 _atom_site_symmetry_multiplicity
 _atom_site_fract_x
 _atom_site_fract_y
 _atom_site_fract_z
 _atom_site_occupancy
  Li  Li0  1  0.87509599  0.75167089  0.04702814  1
  Li  Li1  1  0.37509682  0.24832645  0.54703233  1
  Li  Li2  1  0.62490491  0.25166922  0.04702803  1
  Li  Li3  1  0.12490410  0.24832660  0.04703227  1
  Li  Li4  1  0.37509548  0.74832793  0.04703219  1
  Li  Li5  1  0.62490298  0.75167211  0.54702775  1
  Li  Li6  1  0.12490362  0.74832889  0.54703229  1
  Li  Li7  1  0.87509627  0.25167139  0.54702848  1
  Br  Br8  1  0.37491988  0.24951337  0.04628249  1
  Br  Br9  1  0.87491934  0.75048823  0.54628054  1
  Br  Br10  1  0.12508179  0.74951270  0.04628269  1
  Br  Br11  1  0.62507993  0.75048766  0.04628020  1
  Br  Br12  1  0.87491858  0.25048885  0.04628087  1
  Br  Br13  1  0.12508055  0.24951378  0.54628245  1
  Br  Br14  1  0.62508206  0.25048813  0.54628052  1
  Br  Br15  1  0.37491770  0.74951379  0.54628260  1
