# generated using pymatgen
data_LiBr
_symmetry_space_group_name_H-M   'P 1'
_cell_length_a   10.02906684
_cell_length_b   10.02879250
_cell_length_c   3.88502869
_cell_angle_alpha   90.00037182
_cell_angle_beta   90.00001661
_cell_angle_gamma   120.01631925
_symmetry_Int_Tables_number   1
_chemical_formula_structural   LiBr
_chemical_formula_sum   'Li6 Br6'
_cell_volume   338.34720522
_cell_formula_units_Z   6
loop_
 _symmetry_equiv_pos_site_id
 _symmetry_equiv_pos_as_xyz
  1  'x, y, z'
loop_
 _atom_site_type_symbol
 _atom_site_label
 _atom_site_symmetry_multiplicity
 _atom_site_fract_x
 _atom_site_fract_y
 _atom_site_fract_z
 _atom_site_occupancy
  Li  Li0  1  0.33894115  0.91643339  0.29667910  1
  Li  Li1  1  0.42253110  0.33895113  0.13003722  1
  Li  Li2  1  0.57746879  0.66105004  0.63004160  1
  Li  Li3  1  0.91644174  0.57747104  0.46323243  1
  Li  Li4  1  0.08355801  0.42252860  0.96323104  1
  Li  Li5  1  0.66106027  0.08356759  0.79668218  1
  Br  Br6  1  0.57781688  0.88485236  0.30475324  1
  Br  Br7  1  0.69295677  0.57788153  0.13814049  1
  Br  Br8  1  0.30704305  0.42211852  0.63813740  1
  Br  Br9  1  0.88486603  0.30702093  0.47129751  1
  Br  Br10  1  0.11513287  0.69297804  -0.02869608  1
  Br  Br11  1  0.42218334  0.11514684  0.80475568  1
