# generated using pymatgen
data_LiBr
_symmetry_space_group_name_H-M   'P 1'
_cell_length_a   10.33531419
_cell_length_b   10.33528912
_cell_length_c   12.37086720
_cell_angle_alpha   89.99256432
_cell_angle_beta   90.00724989
_cell_angle_gamma   120.02019645
_symmetry_Int_Tables_number   1
_chemical_formula_structural   LiBr
_chemical_formula_sum   'Li18 Br18'
_cell_volume   1144.16501709
_cell_formula_units_Z   18
loop_
 _symmetry_equiv_pos_site_id
 _symmetry_equiv_pos_as_xyz
  1  'x, y, z'
loop_
 _atom_site_type_symbol
 _atom_site_label
 _atom_site_symmetry_multiplicity
 _atom_site_fract_x
 _atom_site_fract_y
 _atom_site_fract_z
 _atom_site_occupancy
  Li  Li0  1  0.08397531  0.66718460  0.20513674  1
  Li  Li1  1  0.08399142  0.41682263  0.70516475  1
  Li  Li2  1  0.66614860  0.58269031  0.37180410  1
  Li  Li3  1  0.91651170  0.33380078  0.37182399  1
  Li  Li4  1  -0.00046682  0.75015601  0.53849154  1
  Li  Li5  1  0.33286506  0.41682338  0.20515785  1
  Li  Li6  1  0.91651252  0.58267604  0.87183231  1
  Li  Li7  1  0.66619974  0.08348969  0.87182409  1
  Li  Li8  1  0.58317770  0.91600813  0.20516493  1
  Li  Li9  1  0.58317788  0.66713453  0.70515713  1
  Li  Li10  1  0.41730839  0.33385079  0.87180316  1
  Li  Li11  1  0.41732431  0.08348857  0.37183173  1
  Li  Li12  1  0.24984680  0.24934223  0.53849768  1
  Li  Li13  1  0.24984360  0.00046752  0.03849039  1
  Li  Li14  1  0.33281408  0.91602231  0.70513758  1
  Li  Li15  1  -0.00051949  0.24935664  0.03847022  1
  Li  Li16  1  0.75064366  0.00051855  0.53847024  1
  Li  Li17  1  0.75065775  0.75015483  0.03849913  1
  Br  Br18  1  0.24678127  0.24712826  0.03807242  1
  Br  Br19  1  0.24679511  -0.00036057  0.53814211  1
  Br  Br20  1  0.08620352  0.41988539  0.20473976  1
  Br  Br21  1  0.33364463  0.91379186  0.20469889  1
  Br  Br22  1  0.41954197  0.33302043  0.37136711  1
  Br  Br23  1  0.75287427  -0.00031314  0.03803431  1
  Br  Br24  1  0.33369494  0.41987179  0.70480885  1
  Br  Br25  1  0.08620890  0.66635386  0.70470142  1
  Br  Br26  1  0.00036072  0.75320450  0.03814289  1
  Br  Br27  1  0.00031253  0.24712505  0.53803203  1
  Br  Br28  1  0.58011588  0.91379630  0.70473913  1
  Br  Br29  1  0.58012794  0.66630647  0.20480911  1
  Br  Br30  1  0.66702965  0.08653842  0.37147636  1
  Br  Br31  1  0.66698010  0.58045938  0.87136591  1
  Br  Br32  1  0.75287138  0.75321736  0.53807369  1
  Br  Br33  1  0.41953512  0.08655049  0.87140668  1
  Br  Br34  1  -0.08655153  0.58046296  0.37140631  1
  Br  Br35  1  -0.08653861  0.33297365  0.87147530  1
