# generated using pymatgen
data_KI
_symmetry_space_group_name_H-M   'P 1'
_cell_length_a   5.07973969
_cell_length_b   5.07689955
_cell_length_c   8.79501338
_cell_angle_alpha   89.99994041
_cell_angle_beta   125.24580052
_cell_angle_gamma   90.00000617
_symmetry_Int_Tables_number   1
_chemical_formula_structural   KI
_chemical_formula_sum   'K2 I2'
_cell_volume   185.23817890
_cell_formula_units_Z   2
loop_
 _symmetry_equiv_pos_site_id
 _symmetry_equiv_pos_as_xyz
  1  'x, y, z'
loop_
 _atom_site_type_symbol
 _atom_site_label
 _atom_site_symmetry_multiplicity
 _atom_site_fract_x
 _atom_site_fract_y
 _atom_site_fract_z
 _atom_site_occupancy
  K  K0  1  0.66382286  0.74814421  0.65473740  1
  K  K1  1  0.66382328  0.25185574  0.15473761  1
  I  I2  1  0.16396417  0.24830930  0.65479562  1
  I  I3  1  0.16396466  0.75169075  0.15479565  1
