# generated using pymatgen
data_LiBr
_symmetry_space_group_name_H-M   'P 1'
_cell_length_a   3.89522543
_cell_length_b   3.89523437
_cell_length_c   9.52676688
_cell_angle_alpha   89.99993759
_cell_angle_beta   90.00007049
_cell_angle_gamma   120.00072237
_symmetry_Int_Tables_number   1
_chemical_formula_structural   LiBr
_chemical_formula_sum   'Li3 Br3'
_cell_volume   125.18122556
_cell_formula_units_Z   3
loop_
 _symmetry_equiv_pos_site_id
 _symmetry_equiv_pos_as_xyz
  1  'x, y, z'
loop_
 _atom_site_type_symbol
 _atom_site_label
 _atom_site_symmetry_multiplicity
 _atom_site_fract_x
 _atom_site_fract_y
 _atom_site_fract_z
 _atom_site_occupancy
  Li  Li0  1  0.33404712  0.33253233  0.22714226  1
  Li  Li1  1  0.66746998  0.00151836  0.56047431  1
  Li  Li2  1  -0.00151445  0.66594963  0.89380497  1
  Br  Br3  1  0.33426077  0.33425654  0.72706698  1
  Br  Br4  1  0.66574457  0.00000202  0.06039935  1
  Br  Br5  1  -0.00000798  0.66574111  0.39373495  1
