# generated using pymatgen
data_LiBr
_symmetry_space_group_name_H-M   'P 1'
_cell_length_a   7.78534286
_cell_length_b   7.78523776
_cell_length_c   11.00748244
_cell_angle_alpha   89.99999725
_cell_angle_beta   90.00000011
_cell_angle_gamma   89.99997392
_symmetry_Int_Tables_number   1
_chemical_formula_structural   LiBr
_chemical_formula_sum   'Li16 Br16'
_cell_volume   667.17171427
_cell_formula_units_Z   16
loop_
 _symmetry_equiv_pos_site_id
 _symmetry_equiv_pos_as_xyz
  1  'x, y, z'
loop_
 _atom_site_type_symbol
 _atom_site_label
 _atom_site_symmetry_multiplicity
 _atom_site_fract_x
 _atom_site_fract_y
 _atom_site_fract_z
 _atom_site_occupancy
  Li  Li0  1  0.75027209  -0.00134912  0.82739306  1
  Li  Li1  1  0.49872614  0.75024006  0.07753791  1
  Li  Li2  1  0.24972519  -0.00135101  0.32739393  1
  Li  Li3  1  0.24972925  0.00134695  0.82739317  1
  Li  Li4  1  0.50127408  0.24976120  0.07753832  1
  Li  Li5  1  0.00127595  0.25023860  0.07753727  1
  Li  Li6  1  -0.00127658  0.74976098  0.07753923  1
  Li  Li7  1  0.50127622  0.75023911  0.57753776  1
  Li  Li8  1  0.49872475  0.24976473  0.57753933  1
  Li  Li9  1  0.74972831  0.50134611  0.32739348  1
  Li  Li10  1  0.00127656  0.74976611  0.57753821  1
  Li  Li11  1  0.25027391  0.49865111  0.32739308  1
  Li  Li12  1  -0.00127571  0.25024293  0.57753707  1
  Li  Li13  1  0.74972892  0.49865071  0.82739506  1
  Li  Li14  1  0.25027048  0.50134797  0.82739401  1
  Li  Li15  1  0.75026981  0.00134835  0.32739348  1
  Br  Br16  1  0.49912455  0.24972917  0.82743312  1
  Br  Br17  1  0.74974127  0.49913722  0.07734652  1
  Br  Br18  1  0.50087570  0.24972907  0.32743290  1
  Br  Br19  1  0.50087520  0.75026954  0.82743321  1
  Br  Br20  1  0.25025875  0.50086161  0.07734718  1
  Br  Br21  1  0.75025900  -0.00086262  0.07734727  1
  Br  Br22  1  0.24974068  0.00086185  0.07734792  1
  Br  Br23  1  0.25025927  0.49913809  0.57734684  1
  Br  Br24  1  0.74974116  0.50086283  0.57734775  1
  Br  Br25  1  0.00087547  0.25026921  0.32743332  1
  Br  Br26  1  0.75025891  0.00086255  0.57734740  1
  Br  Br27  1  -0.00087628  0.74972945  0.32743328  1
  Br  Br28  1  0.24974174  -0.00086179  0.57734679  1
  Br  Br29  1  0.00087542  0.74972961  0.82743310  1
  Br  Br30  1  -0.00087470  0.25026951  0.82743233  1
  Br  Br31  1  0.49912451  0.75026992  0.32743222  1
