# generated using pymatgen
data_LiI
_symmetry_space_group_name_H-M   'P 1'
_cell_length_a   6.78065774
_cell_length_b   11.77156447
_cell_length_c   6.82511807
_cell_angle_alpha   90.00035232
_cell_angle_beta   90.00658918
_cell_angle_gamma   90.00218752
_symmetry_Int_Tables_number   1
_chemical_formula_structural   LiI
_chemical_formula_sum   'Li8 I8'
_cell_volume   544.77375288
_cell_formula_units_Z   8
loop_
 _symmetry_equiv_pos_site_id
 _symmetry_equiv_pos_as_xyz
  1  'x, y, z'
loop_
 _atom_site_type_symbol
 _atom_site_label
 _atom_site_symmetry_multiplicity
 _atom_site_fract_x
 _atom_site_fract_y
 _atom_site_fract_z
 _atom_site_occupancy
  Li  Li0  1  -0.00002536  0.49979488  0.24926314  1
  Li  Li1  1  -0.00002058  0.00020066  0.74925743  1
  Li  Li2  1  0.49997690  0.00020267  0.75074546  1
  Li  Li3  1  0.50002477  0.50021042  0.74926307  1
  Li  Li4  1  0.00002015  -0.00019816  0.25074238  1
  Li  Li5  1  0.50002294  -0.00020321  0.24925505  1
  Li  Li6  1  0.49997547  0.49978798  0.25073579  1
  Li  Li7  1  0.00002534  0.50020359  0.75073887  1
  I  I8  1  0.74949935  0.88048022  0.50003202  1
  I  I9  1  0.74948621  0.61951522  0.00003912  1
  I  I10  1  0.24948735  0.61951963  0.49996190  1
  I  I11  1  0.75050361  0.11951305  0.00003311  1
  I  I12  1  0.25051409  0.38048550  -0.00003911  1
  I  I13  1  0.75051353  0.38048113  0.50003800  1
  I  I14  1  0.24949326  0.88048685  -0.00003363  1
  I  I15  1  0.25050296  0.11951956  0.49996741  1
