# generated using pymatgen
data_LiBr
_symmetry_space_group_name_H-M   'P 1'
_cell_length_a   3.89585464
_cell_length_b   3.89725022
_cell_length_c   11.01801913
_cell_angle_alpha   89.99508171
_cell_angle_beta   90.00778844
_cell_angle_gamma   89.99902573
_symmetry_Int_Tables_number   1
_chemical_formula_structural   LiBr
_chemical_formula_sum   'Li4 Br4'
_cell_volume   167.28790843
_cell_formula_units_Z   4
loop_
 _symmetry_equiv_pos_site_id
 _symmetry_equiv_pos_as_xyz
  1  'x, y, z'
loop_
 _atom_site_type_symbol
 _atom_site_label
 _atom_site_symmetry_multiplicity
 _atom_site_fract_x
 _atom_site_fract_y
 _atom_site_fract_z
 _atom_site_occupancy
  Li  Li0  1  0.50007461  0.00546381  0.44407873  1
  Li  Li1  1  0.00547364  0.49992142  0.19410109  1
  Li  Li2  1  0.49992994  -0.00548231  0.94412267  1
  Li  Li3  1  -0.00547589  0.50008416  0.69409717  1
  Br  Br4  1  0.50201341  0.00089815  0.19331010  1
  Br  Br5  1  0.00090004  0.49797264  0.94332643  1
  Br  Br6  1  0.49796876  -0.00090135  0.69335993  1
  Br  Br7  1  -0.00088451  0.50204348  0.44335708  1
