# generated using pymatgen
data_KI
_symmetry_space_group_name_H-M   'P 1'
_cell_length_a   8.58070392
_cell_length_b   5.00511822
_cell_length_c   8.66923140
_cell_angle_alpha   90.00046128
_cell_angle_beta   89.99994852
_cell_angle_gamma   90.00009734
_symmetry_Int_Tables_number   1
_chemical_formula_structural   KI
_chemical_formula_sum   'K4 I4'
_cell_volume   372.32127425
_cell_formula_units_Z   4
loop_
 _symmetry_equiv_pos_site_id
 _symmetry_equiv_pos_as_xyz
  1  'x, y, z'
loop_
 _atom_site_type_symbol
 _atom_site_label
 _atom_site_symmetry_multiplicity
 _atom_site_fract_x
 _atom_site_fract_y
 _atom_site_fract_z
 _atom_site_occupancy
  K  K0  1  0.75008961  0.24985728  0.32078745  1
  K  K1  1  0.25008988  0.75014329  0.32078801  1
  K  K2  1  0.24991018  0.75014347  0.82078812  1
  K  K3  1  0.74991044  0.24985734  0.82078739  1
  I  I4  1  0.91511051  0.74985999  0.57045744  1
  I  I5  1  0.41511054  0.25014061  0.57045794  1
  I  I6  1  0.08488932  0.25013939  0.07045795  1
  I  I7  1  0.58488953  0.74985863  0.07045744  1
