# generated using pymatgen
data_KI
_symmetry_space_group_name_H-M   'P 1'
_cell_length_a   9.71101150
_cell_length_b   13.51740689
_cell_length_c   9.73542495
_cell_angle_alpha   90.00026296
_cell_angle_beta   89.98357565
_cell_angle_gamma   89.99937471
_symmetry_Int_Tables_number   1
_chemical_formula_structural   KI
_chemical_formula_sum   'K8 I8'
_cell_volume   1277.94672836
_cell_formula_units_Z   8
loop_
 _symmetry_equiv_pos_site_id
 _symmetry_equiv_pos_as_xyz
  1  'x, y, z'
loop_
 _atom_site_type_symbol
 _atom_site_label
 _atom_site_symmetry_multiplicity
 _atom_site_fract_x
 _atom_site_fract_y
 _atom_site_fract_z
 _atom_site_occupancy
  K  K0  1  -0.00086692  0.96914627  0.24992304  1
  K  K1  1  -0.00086703  0.53085480  0.74992301  1
  K  K2  1  0.49913893  0.03085377  0.25007134  1
  K  K3  1  0.50086071  0.53085361  0.24992903  1
  K  K4  1  0.00086734  0.46914610  0.25007675  1
  K  K5  1  0.50086063  0.96914533  0.74992857  1
  K  K6  1  0.49914035  0.46914502  0.75007094  1
  K  K7  1  0.00086601  0.03085511  0.75007711  1
  I  I8  1  0.74991705  0.49882064  0.00007460  1
  I  I9  1  0.74991533  0.00117934  0.50007517  1
  I  I10  1  0.24992051  0.50118142  0.49992005  1
  I  I11  1  0.75007938  0.00118129  0.00007981  1
  I  I12  1  0.25008320  0.99882059  0.49992522  1
  I  I13  1  0.75008094  0.49881863  0.50008020  1
  I  I14  1  0.24991905  0.99881873  -0.00007991  1
  I  I15  1  0.25008454  0.50117935  -0.00007491  1
