# generated using pymatgen
data_LiBr
_symmetry_space_group_name_H-M   'P 1'
_cell_length_a   10.10172621
_cell_length_b   10.10174563
_cell_length_c   8.32527334
_cell_angle_alpha   89.99988390
_cell_angle_beta   89.99992132
_cell_angle_gamma   89.99984518
_symmetry_Int_Tables_number   1
_chemical_formula_structural   LiBr
_chemical_formula_sum   'Li16 Br16'
_cell_volume   849.55308901
_cell_formula_units_Z   16
loop_
 _symmetry_equiv_pos_site_id
 _symmetry_equiv_pos_as_xyz
  1  'x, y, z'
loop_
 _atom_site_type_symbol
 _atom_site_label
 _atom_site_symmetry_multiplicity
 _atom_site_fract_x
 _atom_site_fract_y
 _atom_site_fract_z
 _atom_site_occupancy
  Li  Li0  1  0.49882180  0.16869643  0.54469655  1
  Li  Li1  1  0.66870049  0.49882260  0.79469495  1
  Li  Li2  1  0.50117813  0.16869951  0.04469434  1
  Li  Li3  1  0.50117786  0.83129904  0.54469432  1
  Li  Li4  1  0.33130064  0.50117818  0.79469312  1
  Li  Li5  1  0.83130096  -0.00117719  0.79469529  1
  Li  Li6  1  0.16869733  0.00117828  0.79469547  1
  Li  Li7  1  0.33130037  0.49882175  0.29469484  1
  Li  Li8  1  0.66869839  0.50117852  0.29469651  1
  Li  Li9  1  0.00117762  0.33129932  0.04469438  1
  Li  Li10  1  0.83130201  0.00117819  0.29469358  1
  Li  Li11  1  -0.00117798  0.66869631  0.04469593  1
  Li  Li12  1  0.16869801  -0.00117665  0.29469524  1
  Li  Li13  1  0.00117949  0.66869605  0.54469522  1
  Li  Li14  1  -0.00117848  0.33130293  0.54469454  1
  Li  Li15  1  0.49882202  0.83130029  0.04469448  1
  Br  Br16  1  -0.00061640  0.19004175  0.79453277  1
  Br  Br17  1  0.69004128  -0.00061406  0.04453351  1
  Br  Br18  1  0.00061643  0.19004041  0.29453326  1
  Br  Br19  1  0.00061622  0.80995984  0.79453473  1
  Br  Br20  1  0.30995825  0.00061715  0.04453311  1
  Br  Br21  1  0.80995899  0.49938474  0.04453324  1
  Br  Br22  1  0.19004089  0.50061610  0.04453213  1
  Br  Br23  1  0.30995907  -0.00061697  0.54453429  1
  Br  Br24  1  0.69004047  0.00061379  0.54453253  1
  Br  Br25  1  0.50061626  0.30995917  0.29453494  1
  Br  Br26  1  0.80996032  0.50061711  0.54453493  1
  Br  Br27  1  0.49938499  0.69003985  0.29453166  1
  Br  Br28  1  0.19003978  0.49938613  0.54453323  1
  Br  Br29  1  0.50061580  0.69004187  0.79453448  1
  Br  Br30  1  0.49938457  0.30995823  0.79453281  1
  Br  Br31  1  -0.00061558  0.80996133  0.29453289  1
