# generated using pymatgen
data_LiBr
_symmetry_space_group_name_H-M   'P 1'
_cell_length_a   5.21003901
_cell_length_b   5.21670166
_cell_length_c   9.08058648
_cell_angle_alpha   89.99979967
_cell_angle_beta   106.55715460
_cell_angle_gamma   90.00002903
_symmetry_Int_Tables_number   1
_chemical_formula_structural   LiBr
_chemical_formula_sum   'Li4 Br4'
_cell_volume   236.56978562
_cell_formula_units_Z   4
loop_
 _symmetry_equiv_pos_site_id
 _symmetry_equiv_pos_as_xyz
  1  'x, y, z'
loop_
 _atom_site_type_symbol
 _atom_site_label
 _atom_site_symmetry_multiplicity
 _atom_site_fract_x
 _atom_site_fract_y
 _atom_site_fract_z
 _atom_site_occupancy
  Li  Li0  1  0.92931519  0.37649692  0.70883289  1
  Li  Li1  1  0.42931519  0.87649468  0.70883289  1
  Li  Li2  1  0.92931705  0.62350535  0.20883185  1
  Li  Li3  1  0.42931663  0.12350447  0.20883149  1
  Br  Br4  1  0.92876780  0.87676796  0.70831070  1
  Br  Br5  1  0.42876780  0.37676723  0.70831080  1
  Br  Br6  1  0.92877098  0.12323188  0.20831190  1
  Br  Br7  1  0.42877107  0.62323150  0.20831190  1
