# generated using pymatgen
data_NaI
_symmetry_space_group_name_H-M   'P 1'
_cell_length_a   4.61998472
_cell_length_b   4.61996330
_cell_length_c   13.04547367
_cell_angle_alpha   89.99998609
_cell_angle_beta   89.99919986
_cell_angle_gamma   89.99997820
_symmetry_Int_Tables_number   1
_chemical_formula_structural   NaI
_chemical_formula_sum   'Na4 I4'
_cell_volume   278.44467569
_cell_formula_units_Z   4
loop_
 _symmetry_equiv_pos_site_id
 _symmetry_equiv_pos_as_xyz
  1  'x, y, z'
loop_
 _atom_site_type_symbol
 _atom_site_label
 _atom_site_symmetry_multiplicity
 _atom_site_fract_x
 _atom_site_fract_y
 _atom_site_fract_z
 _atom_site_occupancy
  Na  Na0  1  0.49976546  0.00016196  0.51723865  1
  Na  Na1  1  0.00016414  0.50023169  0.76723494  1
  Na  Na2  1  0.50023541  -0.00015987  0.01723428  1
  Na  Na3  1  -0.00016031  0.49976677  0.26723736  1
  I  I4  1  0.49995873  0.00021604  0.26753305  1
  I  I5  1  0.00021403  0.50004063  0.51753915  1
  I  I6  1  0.50004036  -0.00021694  0.76754680  1
  I  I7  1  -0.00021783  0.49995972  0.01754049  1
