# generated using pymatgen
data_NaI
_symmetry_space_group_name_H-M   'P 1'
_cell_length_a   6.52992386
_cell_length_b   6.53552337
_cell_length_c   6.50798893
_cell_angle_alpha   89.99876796
_cell_angle_beta   89.97815705
_cell_angle_gamma   90.00011215
_symmetry_Int_Tables_number   1
_chemical_formula_structural   NaI
_chemical_formula_sum   'Na4 I4'
_cell_volume   277.73797383
_cell_formula_units_Z   4
loop_
 _symmetry_equiv_pos_site_id
 _symmetry_equiv_pos_as_xyz
  1  'x, y, z'
loop_
 _atom_site_type_symbol
 _atom_site_label
 _atom_site_symmetry_multiplicity
 _atom_site_fract_x
 _atom_site_fract_y
 _atom_site_fract_z
 _atom_site_occupancy
  Na  Na0  1  0.58131339  0.74709119  0.01874177  1
  Na  Na1  1  0.08131361  0.24709166  0.01874283  1
  Na  Na2  1  0.58131405  0.25290879  0.51874901  1
  Na  Na3  1  0.08131429  0.75290847  0.51875023  1
  I  I4  1  0.08044987  0.74799932  0.01973568  1
  I  I5  1  0.58045019  0.24799894  0.01973510  1
  I  I6  1  0.08045013  0.25200067  0.51973428  1
  I  I7  1  0.58045043  0.75200095  0.51973377  1
