# generated using pymatgen
data_NaI
_symmetry_space_group_name_H-M   'P 1'
_cell_length_a   6.53008225
_cell_length_b   4.61815672
_cell_length_c   9.24017553
_cell_angle_alpha   89.99990214
_cell_angle_beta   89.99995770
_cell_angle_gamma   89.99998614
_symmetry_Int_Tables_number   1
_chemical_formula_structural   NaI
_chemical_formula_sum   'Na4 I4'
_cell_volume   278.65544897
_cell_formula_units_Z   4
loop_
 _symmetry_equiv_pos_site_id
 _symmetry_equiv_pos_as_xyz
  1  'x, y, z'
loop_
 _atom_site_type_symbol
 _atom_site_label
 _atom_site_symmetry_multiplicity
 _atom_site_fract_x
 _atom_site_fract_y
 _atom_site_fract_z
 _atom_site_occupancy
  Na  Na0  1  0.74801648  0.50158039  0.37615826  1
  Na  Na1  1  0.25198447  0.00157694  0.12383614  1
  Na  Na2  1  0.75198300  0.49842315  0.87616052  1
  Na  Na3  1  0.24801641  -0.00157966  0.62384507  1
  I  I4  1  0.74825677  -0.00000100  0.62560426  1
  I  I5  1  0.25174265  0.49999701  0.87439671  1
  I  I6  1  0.75174299  0.00000247  0.12560637  1
  I  I7  1  0.24825723  0.50000070  0.37439267  1
