# generated using pymatgen
data_LiI
_symmetry_space_group_name_H-M   'P 1'
_cell_length_a   4.58830631
_cell_length_b   7.30528473
_cell_length_c   4.57389456
_cell_angle_alpha   89.99896515
_cell_angle_beta   119.88655463
_cell_angle_gamma   89.99946737
_symmetry_Int_Tables_number   1
_chemical_formula_structural   LiI
_chemical_formula_sum   'Li2 I2'
_cell_volume   132.92346723
_cell_formula_units_Z   2
loop_
 _symmetry_equiv_pos_site_id
 _symmetry_equiv_pos_as_xyz
  1  'x, y, z'
loop_
 _atom_site_type_symbol
 _atom_site_label
 _atom_site_symmetry_multiplicity
 _atom_site_fract_x
 _atom_site_fract_y
 _atom_site_fract_z
 _atom_site_occupancy
  Li  Li0  1  0.16873986  0.37225224  -0.16298416  1
  Li  Li1  1  0.83127283  0.87225358  0.16299470  1
  I  I2  1  0.83394642  0.25361487  0.16947023  1
  I  I3  1  0.16604089  0.75361547  0.83051923  1
