# generated using pymatgen
data_LiI
_symmetry_space_group_name_H-M   'P 1'
_cell_length_a   13.02320824
_cell_length_b   13.02321068
_cell_length_c   7.98412093
_cell_angle_alpha   89.99723450
_cell_angle_beta   90.00271427
_cell_angle_gamma   120.00490866
_symmetry_Int_Tables_number   1
_chemical_formula_structural   LiI
_chemical_formula_sum   'Li18 I18'
_cell_volume   1172.66052273
_cell_formula_units_Z   18
loop_
 _symmetry_equiv_pos_site_id
 _symmetry_equiv_pos_as_xyz
  1  'x, y, z'
loop_
 _atom_site_type_symbol
 _atom_site_label
 _atom_site_symmetry_multiplicity
 _atom_site_fract_x
 _atom_site_fract_y
 _atom_site_fract_z
 _atom_site_occupancy
  Li  Li0  1  0.54236816  0.83325137  0.07643550  1
  Li  Li1  1  0.54234707  0.70911075  0.57644785  1
  Li  Li2  1  0.50000364  0.12432557  0.24315017  1
  Li  Li3  1  0.62430803  0.49997781  0.24317949  1
  Li  Li4  1  0.83363370  0.04248509  0.40963541  1
  Li  Li5  1  0.16678086  0.70912655  0.07645355  1
  Li  Li6  1  0.62431797  0.12434441  0.74318202  1
  Li  Li7  1  0.50002487  0.37569307  0.74317856  1
  Li  Li8  1  0.29089165  0.45765282  0.07644595  1
  Li  Li9  1  0.29087247  0.83321542  0.57645172  1
  Li  Li10  1  0.87567606  0.49999870  0.74315182  1
  Li  Li11  1  0.87565556  0.37568281  0.24317998  1
  Li  Li12  1  -0.04246537  0.79117229  0.40963867  1
  Li  Li13  1  -0.04248639  0.16636458  0.90963601  1
  Li  Li14  1  0.16674673  0.45763188  0.57643288  1
  Li  Li15  1  0.83361430  0.79113565  0.90960830  1
  Li  Li16  1  0.20886364  0.16638709  0.40960982  1
  Li  Li17  1  0.20882649  0.04246514  0.90963692  1
  I  I18  1  0.83278219  0.54146218  0.41076961  1
  I  I19  1  0.83277311  0.29132992  0.91077025  1
  I  I20  1  0.79202266  0.83406430  0.57732689  1
  I  I21  1  0.04204019  0.20796124  0.57735023  1
  I  I22  1  0.12534471  0.62470164  0.74415820  1
  I  I23  1  0.45856333  0.29133250  0.41078970  1
  I  I24  1  0.04203831  0.83406207  0.07733031  1
  I  I25  1  0.79203954  -0.04204190  0.07735090  1
  I  I26  1  0.70867095  0.16722728  0.41077011  1
  I  I27  1  0.70866866  0.54143672  0.91079148  1
  I  I28  1  0.16593553  0.20797753  0.07732631  1
  I  I29  1  0.16593791  -0.04203945  0.57733026  1
  I  I30  1  0.37529491  0.50063621  0.74413624  1
  I  I31  1  0.37529769  0.87465570  0.24415708  1
  I  I32  1  0.45853774  0.16721655  0.91076774  1
  I  I33  1  0.12533576  0.50062734  0.24413488  1
  I  I34  1  0.49937358  0.87466413  0.74413645  1
  I  I35  1  0.49936379  0.62470508  0.24413775  1
