# generated using pymatgen
data_LiBr
_symmetry_space_group_name_H-M   'P 1'
_cell_length_a   3.91612555
_cell_length_b   3.91622816
_cell_length_c   10.84092497
_cell_angle_alpha   89.99998331
_cell_angle_beta   90.00000966
_cell_angle_gamma   89.99925983
_symmetry_Int_Tables_number   1
_chemical_formula_structural   LiBr
_chemical_formula_sum   'Li4 Br4'
_cell_volume   166.26120797
_cell_formula_units_Z   4
loop_
 _symmetry_equiv_pos_site_id
 _symmetry_equiv_pos_as_xyz
  1  'x, y, z'
loop_
 _atom_site_type_symbol
 _atom_site_label
 _atom_site_symmetry_multiplicity
 _atom_site_fract_x
 _atom_site_fract_y
 _atom_site_fract_z
 _atom_site_occupancy
  Li  Li0  1  -0.00012773  0.49977659  0.47858257  1
  Li  Li1  1  0.49980816  0.00023704  0.72726635  1
  Li  Li2  1  0.00012770  0.50022333  -0.02141752  1
  Li  Li3  1  0.50019183  -0.00023709  0.22726639  1
  Br  Br4  1  0.00010898  0.49969963  0.72803384  1
  Br  Br5  1  0.49968527  -0.00010071  0.97800392  1
  Br  Br6  1  -0.00010888  0.50030031  0.22803386  1
  Br  Br7  1  0.50031467  0.00010090  0.47800387  1
