# generated using pymatgen
data_LiBr
_symmetry_space_group_name_H-M   'P 1'
_cell_length_a   3.89556842
_cell_length_b   3.89556735
_cell_length_c   11.01236538
_cell_angle_alpha   90.00041698
_cell_angle_beta   90.00008019
_cell_angle_gamma   89.99999398
_symmetry_Int_Tables_number   1
_chemical_formula_structural   LiBr
_chemical_formula_sum   'Li4 Br4'
_cell_volume   167.11759055
_cell_formula_units_Z   4
loop_
 _symmetry_equiv_pos_site_id
 _symmetry_equiv_pos_as_xyz
  1  'x, y, z'
loop_
 _atom_site_type_symbol
 _atom_site_label
 _atom_site_symmetry_multiplicity
 _atom_site_fract_x
 _atom_site_fract_y
 _atom_site_fract_z
 _atom_site_occupancy
  Li  Li0  1  0.50019310  -0.00100412  0.83390579  1
  Li  Li1  1  -0.00097862  0.49981117  0.08390815  1
  Li  Li2  1  0.49979798  0.00097417  0.33390751  1
  Li  Li3  1  0.00100510  0.50020722  0.58390606  1
  Br  Br4  1  -0.00004469  0.50071666  0.33281180  1
  Br  Br5  1  0.50071359  0.00004367  0.58281054  1
  Br  Br6  1  0.00003299  0.49928512  0.83281108  1
  Br  Br7  1  0.49928055  -0.00003389  0.08281237  1
