# generated using pymatgen
data_KI
_symmetry_space_group_name_H-M   'P 1'
_cell_length_a   8.52606844
_cell_length_b   4.96681010
_cell_length_c   8.85370051
_cell_angle_alpha   90.00037447
_cell_angle_beta   89.99993751
_cell_angle_gamma   90.00022296
_symmetry_Int_Tables_number   1
_chemical_formula_structural   KI
_chemical_formula_sum   'K4 I4'
_cell_volume   374.93086791
_cell_formula_units_Z   4
loop_
 _symmetry_equiv_pos_site_id
 _symmetry_equiv_pos_as_xyz
  1  'x, y, z'
loop_
 _atom_site_type_symbol
 _atom_site_label
 _atom_site_symmetry_multiplicity
 _atom_site_fract_x
 _atom_site_fract_y
 _atom_site_fract_z
 _atom_site_occupancy
  K  K0  1  0.41489775  0.74930959  0.43077777  1
  K  K1  1  0.91489781  0.25069241  0.43077759  1
  K  K2  1  0.58510212  0.25068995  0.93077787  1
  K  K3  1  0.08510204  0.74930813  0.93077760  1
  I  I4  1  0.25023792  0.24935491  0.18109958  1
  I  I5  1  0.75023783  0.75064494  0.18109951  1
  I  I6  1  0.74976225  0.75064505  0.68109951  1
  I  I7  1  0.24976227  0.24935503  0.68109961  1
