# generated using pymatgen
data_LiI
_symmetry_space_group_name_H-M   'P 1'
_cell_length_a   8.52004177
_cell_length_b   8.52005539
_cell_length_c   12.00579551
_cell_angle_alpha   89.99995014
_cell_angle_beta   89.99998958
_cell_angle_gamma   89.99886204
_symmetry_Int_Tables_number   1
_chemical_formula_structural   LiI
_chemical_formula_sum   'Li16 I16'
_cell_volume   871.51543722
_cell_formula_units_Z   16
loop_
 _symmetry_equiv_pos_site_id
 _symmetry_equiv_pos_as_xyz
  1  'x, y, z'
loop_
 _atom_site_type_symbol
 _atom_site_label
 _atom_site_symmetry_multiplicity
 _atom_site_fract_x
 _atom_site_fract_y
 _atom_site_fract_z
 _atom_site_occupancy
  Li  Li0  1  0.00047592  0.75022944  0.48320217  1
  Li  Li1  1  0.25022953  0.00047793  0.73320034  1
  Li  Li2  1  -0.00048177  0.75022785  -0.01679924  1
  Li  Li3  1  -0.00047662  0.24977156  0.48320119  1
  Li  Li4  1  0.74977023  -0.00047822  0.73320039  1
  Li  Li5  1  0.24977302  0.50048125  0.73320170  1
  Li  Li6  1  0.75022678  0.49951819  0.73320129  1
  Li  Li7  1  0.74977385  0.00048074  0.23319928  1
  Li  Li8  1  0.25022775  -0.00048082  0.23320022  1
  Li  Li9  1  0.49952229  0.74977116  -0.01680070  1
  Li  Li10  1  0.24977022  0.49952171  0.23320039  1
  Li  Li11  1  0.50047832  0.25022749  -0.01680117  1
  Li  Li12  1  0.75023010  0.50047876  0.23320049  1
  Li  Li13  1  0.49951695  0.25022833  0.48319761  1
  Li  Li14  1  0.50048222  0.74977196  0.48319804  1
  Li  Li15  1  0.00048155  0.24977214  -0.01679980  1
  I  I16  1  0.00051085  0.75019564  0.73350069  1
  I  I17  1  0.25019537  0.00051092  0.98350151  1
  I  I18  1  -0.00051162  0.75019640  0.23349991  1
  I  I19  1  -0.00051129  0.24980416  0.73350060  1
  I  I20  1  0.74980457  -0.00051116  0.98350170  1
  I  I21  1  0.24980320  0.50051212  0.98350129  1
  I  I22  1  0.75019660  0.49948771  0.98350130  1
  I  I23  1  0.74980341  0.00051257  0.48350026  1
  I  I24  1  0.25019659  -0.00051194  0.48350035  1
  I  I25  1  0.49948859  0.74980431  0.23350020  1
  I  I26  1  0.24980430  0.49948898  0.48350067  1
  I  I27  1  0.50051137  0.25019610  0.23350003  1
  I  I28  1  0.75019555  0.50051094  0.48350064  1
  I  I29  1  0.49948805  0.25019639  0.73350000  1
  I  I30  1  0.50051220  0.74980334  0.73350013  1
  I  I31  1  0.00051194  0.24980404  0.23349972  1
