# generated using pymatgen
data_LiBr
_symmetry_space_group_name_H-M   'P 1'
_cell_length_a   7.75069924
_cell_length_b   5.51738646
_cell_length_c   3.89862049
_cell_angle_alpha   89.99999414
_cell_angle_beta   89.99964237
_cell_angle_gamma   89.99998904
_symmetry_Int_Tables_number   1
_chemical_formula_structural   LiBr
_chemical_formula_sum   'Li4 Br4'
_cell_volume   166.71905897
_cell_formula_units_Z   4
loop_
 _symmetry_equiv_pos_site_id
 _symmetry_equiv_pos_as_xyz
  1  'x, y, z'
loop_
 _atom_site_type_symbol
 _atom_site_label
 _atom_site_symmetry_multiplicity
 _atom_site_fract_x
 _atom_site_fract_y
 _atom_site_fract_z
 _atom_site_occupancy
  Li  Li0  1  0.62620161  0.24850982  0.47727417  1
  Li  Li1  1  0.12620173  0.25148977  0.47727387  1
  Li  Li2  1  0.37379681  0.75148969  0.97727098  1
  Li  Li3  1  0.87379700  0.74851089  0.97727141  1
  Br  Br4  1  0.12455742  0.75037254  0.47761545  1
  Br  Br5  1  0.62455750  0.74962745  0.47761494  1
  Br  Br6  1  0.87544401  0.24962749  -0.02238838  1
  Br  Br7  1  0.37544391  0.25037234  -0.02238784  1
