# generated using pymatgen
data_NaBr
_symmetry_space_group_name_H-M   'P 1'
_cell_length_a   7.25446646
_cell_length_b   4.20008496
_cell_length_c   7.20537984
_cell_angle_alpha   89.99975986
_cell_angle_beta   89.99933070
_cell_angle_gamma   90.00097363
_symmetry_Int_Tables_number   1
_chemical_formula_structural   NaBr
_chemical_formula_sum   'Na4 Br4'
_cell_volume   219.54342365
_cell_formula_units_Z   4
loop_
 _symmetry_equiv_pos_site_id
 _symmetry_equiv_pos_as_xyz
  1  'x, y, z'
loop_
 _atom_site_type_symbol
 _atom_site_label
 _atom_site_symmetry_multiplicity
 _atom_site_fract_x
 _atom_site_fract_y
 _atom_site_fract_z
 _atom_site_occupancy
  Na  Na0  1  0.74945404  0.74998532  0.12405225  1
  Na  Na1  1  0.24945396  0.25001554  0.12405221  1
  Na  Na2  1  0.25054627  0.25001588  0.62405973  1
  Na  Na3  1  0.75054637  0.74998491  0.62405968  1
  Br  Br4  1  0.41601379  0.75105596  0.37401030  1
  Br  Br5  1  0.91601384  0.24894281  0.37401126  1
  Br  Br6  1  0.58398594  0.24894457  0.87401108  1
  Br  Br7  1  0.08398579  0.75105500  0.87401013  1
