# generated using pymatgen
data_LiI
_symmetry_space_group_name_H-M   'P 1'
_cell_length_a   16.22101218
_cell_length_b   16.21615257
_cell_length_c   4.38005950
_cell_angle_alpha   90.00011861
_cell_angle_beta   90.00006818
_cell_angle_gamma   90.00190854
_symmetry_Int_Tables_number   1
_chemical_formula_structural   LiI
_chemical_formula_sum   'Li16 I16'
_cell_volume   1152.14139936
_cell_formula_units_Z   16
loop_
 _symmetry_equiv_pos_site_id
 _symmetry_equiv_pos_as_xyz
  1  'x, y, z'
loop_
 _atom_site_type_symbol
 _atom_site_label
 _atom_site_symmetry_multiplicity
 _atom_site_fract_x
 _atom_site_fract_y
 _atom_site_fract_z
 _atom_site_occupancy
  Li  Li0  1  0.77877172  0.39488894  0.86072522  1
  Li  Li1  1  0.89489002  0.77877082  0.11120431  1
  Li  Li2  1  0.22122728  0.39488779  0.36073137  1
  Li  Li3  1  0.22122553  0.60511161  0.86072679  1
  Li  Li4  1  0.10511007  0.22122796  0.11120162  1
  Li  Li5  1  0.60510868  0.27876847  0.11120055  1
  Li  Li6  1  0.39489075  0.72123029  0.11120564  1
  Li  Li7  1  0.10510914  0.77876676  0.61120271  1
  Li  Li8  1  0.89489028  0.22123597  0.61120770  1
  Li  Li9  1  0.72122732  0.10511276  0.36072624  1
  Li  Li10  1  0.60511062  0.72123101  0.61120298  1
  Li  Li11  1  0.27877517  0.89488771  0.36072846  1
  Li  Li12  1  0.39489024  0.27876880  0.61120187  1
  Li  Li13  1  0.72122815  0.89488894  0.86072808  1
  Li  Li14  1  0.27877317  0.10511038  0.86072477  1
  Li  Li15  1  0.77877202  0.60511080  0.36072405  1
  I  I16  1  0.87550249  0.62256543  0.86987007  1
  I  I17  1  0.12250725  0.87549372  0.12021096  1
  I  I18  1  0.12449587  0.62256347  0.36987196  1
  I  I19  1  0.12449599  0.37743433  0.86987630  1
  I  I20  1  0.87749535  0.12450841  0.12021536  1
  I  I21  1  0.37749244  0.37549450  0.12021175  1
  I  I22  1  0.62250612  0.62450548  0.12021105  1
  I  I23  1  0.87749340  0.87549683  0.62021442  1
  I  I24  1  0.12250829  0.12450284  0.62020993  1
  I  I25  1  0.62449740  0.87743656  0.36987245  1
  I  I26  1  0.37749253  0.62450342  0.62021360  1
  I  I27  1  0.37550429  0.12256305  0.36987033  1
  I  I28  1  0.62250449  0.37549535  0.62020919  1
  I  I29  1  0.62449805  0.12256479  0.86987142  1
  I  I30  1  0.37550476  0.87743435  0.86987454  1
  I  I31  1  0.87550111  0.37743845  0.36987175  1
