# generated using pymatgen
data_LiBr
_symmetry_space_group_name_H-M   'P 1'
_cell_length_a   11.54442347
_cell_length_b   11.54407036
_cell_length_c   7.91779952
_cell_angle_alpha   90.00186369
_cell_angle_beta   89.99967284
_cell_angle_gamma   119.99636950
_symmetry_Int_Tables_number   1
_chemical_formula_structural   LiBr
_chemical_formula_sum   'Li18 Br18'
_cell_volume   913.86539698
_cell_formula_units_Z   18
loop_
 _symmetry_equiv_pos_site_id
 _symmetry_equiv_pos_as_xyz
  1  'x, y, z'
loop_
 _atom_site_type_symbol
 _atom_site_label
 _atom_site_symmetry_multiplicity
 _atom_site_fract_x
 _atom_site_fract_y
 _atom_site_fract_z
 _atom_site_occupancy
  Li  Li0  1  0.59311109  0.79591338  0.11283466  1
  Li  Li1  1  0.59304470  0.79717684  0.61291066  1
  Li  Li2  1  0.53721313  0.07342763  0.27962485  1
  Li  Li3  1  0.53612822  0.46274097  0.27964078  1
  Li  Li4  1  0.87063121  0.13036275  0.44745338  1
  Li  Li5  1  0.20409053  0.79720989  0.11294999  1
  Li  Li6  1  0.53618765  0.07339844  0.77964192  1
  Li  Li7  1  0.53725516  0.46386482  0.77963835  1
  Li  Li8  1  0.20281850  0.40694808  0.11291687  1
  Li  Li9  1  0.20279157  0.79591123  0.61294962  1
  Li  Li10  1  -0.07342950  0.46279119  0.77962517  1
  Li  Li11  1  -0.07340549  0.46380448  0.27963702  1
  Li  Li12  1  0.86954924  0.74022546  0.44748296  1
  Li  Li13  1  0.86964282  0.12936787  0.94744520  1
  Li  Li14  1  0.20408089  0.40688130  0.61283811  1
  Li  Li15  1  0.87067424  0.74030417  0.94760509  1
  Li  Li16  1  0.25968829  0.12931795  0.44759817  1
  Li  Li17  1  0.25977138  0.13043998  0.94747957  1
  Br  Br18  1  0.12005182  0.24105253  0.87370874  1
  Br  Br19  1  0.11989905  0.87892665  0.37379321  1
  Br  Br20  1  0.09221632  0.54655280  0.03984209  1
  Br  Br21  1  0.45436243  0.90780119  0.03988206  1
  Br  Br22  1  0.42552409  0.21233223  0.20798445  1
  Br  Br23  1  0.75899970  0.87896780  0.87364167  1
  Br  Br24  1  0.45431083  0.54654547  0.53979931  1
  Br  Br25  1  0.09219303  0.54563478  0.53988750  1
  Br  Br26  1  0.12108206  0.88010799  0.87379202  1
  Br  Br27  1  0.12103890  0.24099676  0.37364375  1
  Br  Br28  1  0.45345148  0.90777570  0.53983529  1
  Br  Br29  1  0.45345793  0.54569398  0.03978780  1
  Br  Br30  1  0.78764756  0.21317090  0.20792444  1
  Br  Br31  1  0.78768463  0.57448474  0.70798962  1
  Br  Br32  1  0.75894016  0.87994673  0.37369269  1
  Br  Br33  1  0.42562234  0.21317294  0.70790793  1
  Br  Br34  1  0.78682698  0.57438224  0.20792535  1
  Br  Br35  1  0.78684703  0.21236815  0.70792065  1
