# generated using pymatgen
data_LiBr
_symmetry_space_group_name_H-M   'P 1'
_cell_length_a   6.89641443
_cell_length_b   4.37201520
_cell_length_c   6.63683393
_cell_angle_alpha   90.00002929
_cell_angle_beta   89.99980168
_cell_angle_gamma   90.00000343
_symmetry_Int_Tables_number   1
_chemical_formula_structural   LiBr
_chemical_formula_sum   'Li4 Br4'
_cell_volume   200.10869739
_cell_formula_units_Z   4
loop_
 _symmetry_equiv_pos_site_id
 _symmetry_equiv_pos_as_xyz
  1  'x, y, z'
loop_
 _atom_site_type_symbol
 _atom_site_label
 _atom_site_symmetry_multiplicity
 _atom_site_fract_x
 _atom_site_fract_y
 _atom_site_fract_z
 _atom_site_occupancy
  Li  Li0  1  0.91674937  0.74979191  0.19104196  1
  Li  Li1  1  0.41674930  0.25020820  0.19104157  1
  Li  Li2  1  0.08325011  0.25020937  0.69104578  1
  Li  Li3  1  0.58325024  0.74979074  0.69104626  1
  Br  Br4  1  -0.06895980  0.75041217  0.57421489  1
  Br  Br5  1  0.43104035  0.24958769  0.57421487  1
  Br  Br6  1  0.06896013  0.24958818  0.07421619  1
  Br  Br7  1  0.56896030  0.75041174  0.07421595  1
