# generated using pymatgen
data_LiBr
_symmetry_space_group_name_H-M   'P 1'
_cell_length_a   7.10532091
_cell_length_b   7.10531431
_cell_length_c   8.45293537
_cell_angle_alpha   90.00001344
_cell_angle_beta   89.99999494
_cell_angle_gamma   89.99940771
_symmetry_Int_Tables_number   1
_chemical_formula_structural   LiBr
_chemical_formula_sum   'Li8 Br8'
_cell_volume   426.75099274
_cell_formula_units_Z   8
loop_
 _symmetry_equiv_pos_site_id
 _symmetry_equiv_pos_as_xyz
  1  'x, y, z'
loop_
 _atom_site_type_symbol
 _atom_site_label
 _atom_site_symmetry_multiplicity
 _atom_site_fract_x
 _atom_site_fract_y
 _atom_site_fract_z
 _atom_site_occupancy
  Li  Li0  1  0.66950969  0.83052668  0.62462756  1
  Li  Li1  1  0.66947105  0.83049185  0.12462545  1
  Li  Li2  1  0.16951433  0.66947569  0.87537464  1
  Li  Li3  1  0.33052864  0.16950829  0.12462609  1
  Li  Li4  1  0.83048660  0.33052278  0.87537186  1
  Li  Li5  1  0.33049014  0.16947406  0.62462811  1
  Li  Li6  1  0.16946925  0.66950923  0.37537446  1
  Li  Li7  1  0.83052922  0.33049102  0.37537221  1
  Br  Br8  1  0.30825902  0.80875103  0.62525583  1
  Br  Br9  1  0.69125023  0.19174099  0.12525826  1
  Br  Br10  1  0.80826103  0.69124998  0.87474325  1
  Br  Br11  1  0.30874994  0.80825915  0.12526071  1
  Br  Br12  1  0.19174002  0.30874991  0.87474378  1
  Br  Br13  1  0.69174114  0.19124884  0.62525357  1
  Br  Br14  1  0.19125256  0.30825879  0.37474226  1
  Br  Br15  1  0.80874715  0.69174169  0.37474198  1
