# generated using pymatgen
data_LiBr
_symmetry_space_group_name_H-M   'P 1'
_cell_length_a   7.01892719
_cell_length_b   4.27287432
_cell_length_c   6.75376756
_cell_angle_alpha   89.99970746
_cell_angle_beta   90.00057453
_cell_angle_gamma   90.00007220
_symmetry_Int_Tables_number   1
_chemical_formula_structural   LiBr
_chemical_formula_sum   'Li4 Br4'
_cell_volume   202.55220038
_cell_formula_units_Z   4
loop_
 _symmetry_equiv_pos_site_id
 _symmetry_equiv_pos_as_xyz
  1  'x, y, z'
loop_
 _atom_site_type_symbol
 _atom_site_label
 _atom_site_symmetry_multiplicity
 _atom_site_fract_x
 _atom_site_fract_y
 _atom_site_fract_z
 _atom_site_occupancy
  Li  Li0  1  0.08288108  0.74892774  0.67155551  1
  Li  Li1  1  0.58288100  0.25108046  0.67158037  1
  Li  Li2  1  0.91711753  0.25108111  0.17157373  1
  Li  Li3  1  0.41711838  0.74891294  0.17158713  1
  Br  Br4  1  0.92421017  0.24947633  0.79314731  1
  Br  Br5  1  0.42420082  0.75052980  0.79314956  1
  Br  Br6  1  0.07579280  0.75052594  0.29314336  1
  Br  Br7  1  0.57579823  0.24946567  0.29314983  1
