# generated using pymatgen
data_LiI
_symmetry_space_group_name_H-M   'P 1'
_cell_length_a   8.48323120
_cell_length_b   7.33426742
_cell_length_c   6.98930487
_cell_angle_alpha   89.99986607
_cell_angle_beta   90.00008696
_cell_angle_gamma   89.99974805
_symmetry_Int_Tables_number   1
_chemical_formula_structural   LiI
_chemical_formula_sum   'Li8 I8'
_cell_volume   434.86257043
_cell_formula_units_Z   8
loop_
 _symmetry_equiv_pos_site_id
 _symmetry_equiv_pos_as_xyz
  1  'x, y, z'
loop_
 _atom_site_type_symbol
 _atom_site_label
 _atom_site_symmetry_multiplicity
 _atom_site_fract_x
 _atom_site_fract_y
 _atom_site_fract_z
 _atom_site_occupancy
  Li  Li0  1  0.62798333  0.25171450  -0.00092602  1
  Li  Li1  1  0.62798389  0.24828528  0.49907770  1
  Li  Li2  1  0.12798374  0.24828521  0.00092172  1
  Li  Li3  1  0.87201709  0.74828423  0.49907730  1
  Li  Li4  1  0.37201677  0.75171426  0.50092323  1
  Li  Li5  1  0.87201544  0.75171520  -0.00092561  1
  Li  Li6  1  0.12798345  0.25171734  0.50092054  1
  Li  Li7  1  0.37201621  0.74828450  0.00092580  1
  I  I8  1  0.87611059  0.08308940  0.24988387  1
  I  I9  1  0.87611020  0.41691001  0.74988327  1
  I  I10  1  0.37610969  0.41691180  0.75011896  1
  I  I11  1  0.62388936  0.91691139  0.74988170  1
  I  I12  1  0.12389004  0.58308908  0.25011837  1
  I  I13  1  0.62389031  0.58308797  0.24988250  1
  I  I14  1  0.37611068  0.08308833  0.25011989  1
  I  I15  1  0.12388923  0.91691149  0.75011678  1
