# generated using pymatgen
data_NaI
_symmetry_space_group_name_H-M   'P 1'
_cell_length_a   11.89337819
_cell_length_b   11.89603197
_cell_length_c   4.62221692
_cell_angle_alpha   89.99645193
_cell_angle_beta   90.00495576
_cell_angle_gamma   120.07451723
_symmetry_Int_Tables_number   1
_chemical_formula_structural   NaI
_chemical_formula_sum   'Na6 I6'
_cell_volume   565.92868749
_cell_formula_units_Z   6
loop_
 _symmetry_equiv_pos_site_id
 _symmetry_equiv_pos_as_xyz
  1  'x, y, z'
loop_
 _atom_site_type_symbol
 _atom_site_label
 _atom_site_symmetry_multiplicity
 _atom_site_fract_x
 _atom_site_fract_y
 _atom_site_fract_z
 _atom_site_occupancy
  Na  Na0  1  0.55758254  0.86982540  0.16366361  1
  Na  Na1  1  0.68781532  0.55783836  -0.00222046  1
  Na  Na2  1  0.31218772  0.44215956  0.49779462  1
  Na  Na3  1  0.86997559  0.31223195  0.33095473  1
  Na  Na4  1  0.13003161  0.68777490  0.83094524  1
  Na  Na5  1  0.44241594  0.13017632  0.66367074  1
  I  I6  1  0.87103923  0.56839490  0.48575345  1
  I  I7  1  0.30269911  0.87115163  0.31907566  1
  I  I8  1  0.69730358  0.12884858  0.81908258  1
  I  I9  1  0.56885926  0.69747041  0.65166324  1
  I  I10  1  0.43113552  0.30253102  0.15164755  1
  I  I11  1  0.12895458  0.43159697  -0.01425325  1
